# ========================
# Tonto generated CIF file
# ========================

# Note: This is an incomplete CIF file, edit it
# in order for it to be acceptable

data_so2

_audit_creation_date                2017-8-14
_audit_creation_method              'Tonto 17.08.11 github v. d4ad9ed'

# ======================
# Tonto software version
# ======================

_QCr_software                       'Tonto'
_QCr_software_version               '17.08.11 v. d4ad9ed'
_QCr_software_platform              'Linux-4.8.0-59-generic'
_QCr_software_build_date            '2017-08-11 01:14'
_QCr_software_website               'https://github.com/dylan-jayatilaka/tonto'

# ================
# Publication info
# ================

_publ_contact_author
;
    Prof. Dr. Sir Tonto Magnifico
;
_publ_contact_author_email          'tonto.magnifico@gmail.com'
_publ_contact_author_phone          '+61 8 6488 3138'
_publ_requested_journal             'IUCrJ'
_publ_section_title
;
   'Hirshfeld atom-refinement (HAR) for so2'
   'X-ray wavefunction refinement (XWR) for so2'
   Tonto Magnifico, IUCrJ (XXXX)
;

loop_
    _publ_author_name
    'Tonto Magnifico'

_publ_author_address
;
    Prof. Dr. Sir Tonto Magnifico
    1 El Camino Ciberespacio
    Tierra Austral del Espiritu Santo
;

# ====================
# Chemical information
# ====================

_chemical_name_common               so2
_chemical_formula_sum               'O2 S'
_chemical_formula_moiety            'O2 S'
_chemical_formula_weight            64.0628
_chemical_compound_source           'see text'
_chemical_absolute_configuration    unk

# ==================
# QCr method details
# ==================

_QCr_calc_method                    'Hartree-Fock/SCCF L=1 R=8.0 A'
_QCr_calc_spinorbital_kind          'restricted'
_QCr_calc_gaussian_basis_set        'DZP'
_QCr_calc_gaussian_basis_set_kind   'cartesian'
_QCr_calc_basis_max_l               '2'

_QCr_calc_unit                      'See _atom_site_* in fragment.cif'
_QCr_calc_unit_spin_multiplicity    1
_QCr_calc_unit_n_electrons          32
_QCr_calc_unit_n_alpha_electrons    16
_QCr_calc_unit_n_beta_electrons     16


# ====================
# Symmetry information
# ====================

_symmetry_cell_setting              Orthorhombic
_symmetry_space_group_name_H-M      'a b a 2'
_symmetry_space_group_name_Hall     'a 2 -2ab'
_symmetry_Int_Tables_number         '41'

loop_
    _symmetry_equiv_pos_as_xyz
'+x, +y, +z'
'+x, +y+1/2, +z+1/2'
'-x, -y, +z'
'-x+1/2, +y+1/2, +z'
'-x, -y+1/2, +z+1/2'
'-x+1/2, +y, +z+1/2'
'+x+1/2, -y+1/2, +z'
'+x+1/2, -y, +z+1/2'

# =====================
# Unit cell information
# =====================

_cell_length_a                   6.078500(0)
_cell_length_b                   5.953300(0)
_cell_length_c                   6.171000(0)
_cell_angle_alpha               90.000000(0)
_cell_angle_beta                90.000000(0)
_cell_angle_gamma               90.000000(0)
_cell_volume                   223.310804(0)

_cell_formula_units_Z               4.000000

_atom_sites_Cartn_tran_matrix_11    6.078500
_atom_sites_Cartn_tran_matrix_21    0.000000
_atom_sites_Cartn_tran_matrix_31    0.000000
_atom_sites_Cartn_tran_matrix_12    0.000000
_atom_sites_Cartn_tran_matrix_22    5.953300
_atom_sites_Cartn_tran_matrix_32    0.000000
_atom_sites_Cartn_tran_matrix_13    0.000000
_atom_sites_Cartn_tran_matrix_23    0.000000
_atom_sites_Cartn_tran_matrix_33    6.171000
_atom_sites_Cartn_tran_vector_1     0.000000
_atom_sites_Cartn_tran_vector_2     0.000000
_atom_sites_Cartn_tran_vector_3     0.000000

_atom_sites_solution_hydrogens      HAR

# ==================
# Refinement details
# ==================

_refine_ls_kind                     'Hirshfeld atom refinement (HAR)'
_refine_ls_method_description
;
   S.C. Capelli, H.-B. Burgi, B. Dittrich, S.Grabowsky
   and Dylan Jayatilaka, IUCrJ (2014). 1, 361-379
;
_refine_QCr_Psi_constraint          'none'

_refine_ls_SVD_threshold            0.1E-02
_refine_ls_coordinate_system        cartesian
_refine_ls_structure_factor_coeff   F
_refine_ls_matrix_type              full
_refine_ls_R_factor_gt              0.0287
_refine_ls_R_factor_all             0.0287
_refine_ls_wR_factor_gt             0.0122
_refine_ls_wR_factor_all            0.0122
_refine_ls_R_Fsqd_factor            0.0485
_refine_ls_goodness_of_fit_gt       1.9231
_refine_ls_goodness_of_fit_all      1.9231
_refine_ls_number_reflns            1080
_refine_ls_number_parameters        27
_refine_ls_number_restraints        0
_refine_ls_number_constraints       17
_refine_ls_hydrogen_treatment       refall
_refine_ls_weighting_scheme         sigma
_refine_ls_weighting_details        'w=1/\s(F)'
_refine_ls_shift/su_conv_tol        0.0100
_refine_ls_shift/su_max             0.0009
_refine_ls_shift/su_max_mean        0.0001
_refine_ls_shift/su_max_par         'O1 py'
_refine_ls_extinction_method        none

_refine_diff_density_max            0.2969
_refine_diff_density_min            -0.4253
_refine_diff_density_rms            0.0660
_refine_diff_density_max_atom       0.0976
_refine_diff_density_max_atom_tag   S
_refine_diff_density_min_atom       0.0181
_refine_diff_density_min_atom_tag   O1
_refine_diff_density_rms_atom       0.0335

_refine_special_details
;
. If constraints were applied they are defined by zero
  eigenvalues of the least-squares hessian, see the
  value of _refine_ls_SVD_threshold
;

# =========================================
# Precise cartesian axis system coordinates
# =========================================

# . These precise data use non-standard CIF tags
# . Non-standard tags shadow standard tags to avoid duplication
# . Please keep for a better refinement restart
# . Units are in Angstrom

loop_
_atom_site_Cartn_label
_atom_site_Cartn_x
_atom_site_Cartn_y
_atom_site_Cartn_z
_atom_site_Cartn_U_iso_or_equiv
_atom_site_Cartn_adp_type
_atom_site_Cartn_occupancy
_atom_site_Cartn_disorder_group
_atom_site_Cartn_x_esd
_atom_site_Cartn_y_esd
_atom_site_Cartn_z_esd
_atom_site_Cartn_U_iso_or_equiv_esd
   S   0.000000  5.953300  5.253710  0.017790  Uani  1.000000  0
       0.000000  0.000000  0.000486  0.000083
  O1  -0.830533  6.846565  5.995751  0.027379  Uani  1.000000  0
       0.000253  0.000242  0.000486  0.000106
  O2   0.830533  5.060035  5.995751  0.027379  Uani  1.000000  0
       0.000253  0.000242  0.000486  0.000106

# ==================================
# Precise cartesian axis system ADPs
# ==================================

# . These precise data use non-standard CIF tags
# . Non-standard tags shadow standard tags to avoid duplication
# . Please keep for a better refinement restart
# . Units are in Angstrom^2

loop_
_atom_site_Cartn_ADP2_U_label
_atom_site_Cartn_ADP2_U_11
_atom_site_Cartn_ADP2_U_22
_atom_site_Cartn_ADP2_U_33
_atom_site_Cartn_ADP2_U_12
_atom_site_Cartn_ADP2_U_13
_atom_site_Cartn_ADP2_U_23
_atom_site_Cartn_ADP2_U_11_esd
_atom_site_Cartn_ADP2_U_22_esd
_atom_site_Cartn_ADP2_U_33_esd
_atom_site_Cartn_ADP2_U_12_esd
_atom_site_Cartn_ADP2_U_13_esd
_atom_site_Cartn_ADP2_U_23_esd
   S  0.019508  0.016391  0.017470  0.001750   0.000000   0.000000
      0.000090  0.000077  0.000082  0.000084   0.000000   0.000000
  O1  0.023734  0.026086  0.032317  0.004499   0.003196  -0.006290
      0.000099  0.000100  0.000120  0.000086   0.000131   0.000124
  O2  0.023734  0.026086  0.032317  0.004499  -0.003196   0.006290
      0.000099  0.000100  0.000120  0.000086   0.000131   0.000124

# =======================
# Precise cartesian ADP3s
# =======================

# . These precise data use non-standard CIF tags
# . Non-standard tags shadow standard tags to avoid duplication
# . Please keep for a better refinement restart
# . Units are in Angstrom^3 but may be scaled

_atom_site_Cartn_ADP3_U_scale_factor 1000.0000000000000

loop_
_atom_site_Cartn_ADP3_U_label
_atom_site_Cartn_ADP3_U_111
_atom_site_Cartn_ADP3_U_222
_atom_site_Cartn_ADP3_U_333
_atom_site_Cartn_ADP3_U_111_esd
_atom_site_Cartn_ADP3_U_222_esd
_atom_site_Cartn_ADP3_U_333_esd
_atom_site_Cartn_ADP3_U_112
_atom_site_Cartn_ADP3_U_113
_atom_site_Cartn_ADP3_U_112_esd
_atom_site_Cartn_ADP3_U_113_esd
_atom_site_Cartn_ADP3_U_122
_atom_site_Cartn_ADP3_U_223
_atom_site_Cartn_ADP3_U_122_esd
_atom_site_Cartn_ADP3_U_223_esd
_atom_site_Cartn_ADP3_U_133
_atom_site_Cartn_ADP3_U_233
_atom_site_Cartn_ADP3_U_133_esd
_atom_site_Cartn_ADP3_U_233_esd
_atom_site_Cartn_ADP3_U_123
_atom_site_Cartn_ADP3_U_123_esd
S
        0.000000        0.000000       -0.016522
        0.000000        0.000000        0.096488
        0.000000        0.053165
        0.000000        0.044815
        0.000000        0.249598
        0.000000        0.040863
        0.000000        0.000000
        0.000000        0.000000
       -0.001341
        0.011563

# =======================
# Precise cartesian ADP4s
# =======================

# . These precise data use non-standard CIF tags
# . Non-standard tags shadow standard tags to avoid duplication
# . Please keep for a better refinement restart
# . Units are in Angstrom^4

_atom_site_Cartn_ADP4_U_scale_factor 10000.000000000000

loop_
_atom_site_Cartn_ADP4_U_label
_atom_site_Cartn_ADP4_U_1111
_atom_site_Cartn_ADP4_U_2222
_atom_site_Cartn_ADP4_U_3333
_atom_site_Cartn_ADP4_U_1111_esd
_atom_site_Cartn_ADP4_U_2222_esd
_atom_site_Cartn_ADP4_U_3333_esd
_atom_site_Cartn_ADP4_U_1112
_atom_site_Cartn_ADP4_U_1113
_atom_site_Cartn_ADP4_U_1112_esd
_atom_site_Cartn_ADP4_U_1113_esd
_atom_site_Cartn_ADP4_U_1222
_atom_site_Cartn_ADP4_U_2223
_atom_site_Cartn_ADP4_U_1222_esd
_atom_site_Cartn_ADP4_U_2223_esd
_atom_site_Cartn_ADP4_U_1333
_atom_site_Cartn_ADP4_U_2333
_atom_site_Cartn_ADP4_U_1333_esd
_atom_site_Cartn_ADP4_U_2333_esd
_atom_site_Cartn_ADP4_U_1122
_atom_site_Cartn_ADP4_U_1133
_atom_site_Cartn_ADP4_U_2233
_atom_site_Cartn_ADP4_U_1122_esd
_atom_site_Cartn_ADP4_U_1133_esd
_atom_site_Cartn_ADP4_U_2233_esd
_atom_site_Cartn_ADP4_U_1123
_atom_site_Cartn_ADP4_U_1223
_atom_site_Cartn_ADP4_U_1233
_atom_site_Cartn_ADP4_U_1123_esd
_atom_site_Cartn_ADP4_U_1223_esd
_atom_site_Cartn_ADP4_U_1233_esd
S
        0.028429       -0.270975        0.040036
        0.086728        0.062633        0.072719
       -0.008658        0.000000
        0.092201        0.000000
       -0.069469        0.000000
        0.083947        0.000000
        0.000000        0.000000
        0.000000        0.000000
        0.014347       -0.028657        0.026224
        0.027413        0.028241        0.026886
        0.000000        0.000000       -0.114854
        0.000000        0.000000        0.053874

# Standard CIF keys and data

# ===============
# Reflection data
# ===============

_diffrn_radiation_wavelength        0.317295

_shelx_F_calc_maximum               68.392922

_reflns_d_resolution_high           3.501991
_reflns_d_resolution_low            0.384580
_reflns_limit_h_max                 15
_reflns_limit_h_min                 0
_reflns_limit_k_max                 15
_reflns_limit_k_min                 0
_reflns_limit_l_max                 16
_reflns_limit_l_min                 0
_reflns_number_gt                   1080
_reflns_number_total                1080
_reflns_threshold_expression        'F>0 & |F_calc|>10^-3'

_reflns_special_details
;
* Specify symmetry and Friedel pair averaging *

. Only reflections which satisfy the threshold expression
  are listed below, and only they are considered observed,
  thus the *_gt, *_all, & *_total data are always the same
;

loop_
    _refln_index_h
    _refln_index_k
    _refln_index_l
    _refln_index_group
    _refln_stl
    _refln_d_spacing
    _refln_A_calc
    _refln_B_calc
    _refln_phase_calc
    _refln_F_calc
    _refln_F_meas
    _refln_F_sigma
    _refln_delta_F_on_sigma
   2   0   0  0  0.164514  3.039250   38.670131    0.000000  360.000000  38.867990  43.773800  0.855400   -5.735106
   4   0   0  0  0.329029  1.519625    5.732435    0.000000  360.000000   5.761765   5.830300  0.051600   -1.328191
   6   0   0  0  0.493543  1.013083   24.752286    0.000000  360.000000  24.878933  24.568100  0.079000    3.934601
   8   0   0  0  0.658057  0.759813   17.249290    0.000000  360.000000  17.337548  17.255500  0.076500    1.072520
  10   0   0  0  0.822571  0.607850    4.147959    0.000000  360.000000   4.169182   4.085900  0.078300    1.063628
  12   0   0  0  0.987086  0.506542    2.084352    0.000000  360.000000   2.095017   2.410500  0.104200   -3.027670
  14   0   0  0  1.151600  0.434179    2.210415    0.000000  360.000000   2.221725   2.374200  0.072100   -2.114772
   0   2   0  0  0.167974  2.976650   30.634704    0.000000  360.000000  30.791449  33.908600  0.380300   -8.196559
   1   2   0  0  0.187033  2.673318   33.030548    0.000000  360.000000  33.199552  34.814500  0.282700   -5.712586
   2   2   0  0  0.235117  2.126596   39.173940    0.000000  360.000000  39.374377  39.992500  0.332400   -1.859576
   3   2   0  0  0.298515  1.674956   14.428988    0.000000    0.000000  14.502815  14.708400  0.070600   -2.911967
   4   2   0  0  0.369425  1.353454   33.033165    0.000000  360.000000  33.202182  32.662000  0.112000    4.823057
   5   2   0  0  0.444265  1.125455  -13.222008    0.000000  180.000000  13.289660  13.162000  0.035300    3.616421
   6   2   0  0  0.521344  0.959059   17.096036    0.000000  360.000000  17.183509  17.192700  0.043000   -0.213738
   7   2   0  0  0.599801  0.833610   -2.136855    0.000000  180.000000   2.147789   2.220500  0.048000   -1.514815
   8   2   0  0  0.679157  0.736207    9.423990    0.000000  360.000000   9.472209   9.375400  0.041800    2.315996
   9   2   0  0  0.759131  0.658648    3.917075    0.000000    0.000000   3.937117   3.847500  0.033600    2.667177
  10   2   0  0  0.839547  0.595559    6.608051    0.000000  360.000000   6.641862   6.616200  0.049500    0.518426
  11   2   0  0  0.920288  0.543308   -0.319017    0.000000  180.000000   0.320649   0.434000  0.401900   -0.282037
  12   2   0  0  1.001276  0.499363    3.535372    0.000000  360.000000   3.553461   3.531600  0.038800    0.563429
  13   2   0  0  1.082455  0.461913   -1.203052    0.000000  180.000000   1.209207   1.212200  0.094200   -0.031771
  14   2   0  0  1.163786  0.429632    1.260790    0.000000  360.000000   1.267240   1.254500  0.081900    0.155561
  15   2   0  0  1.245238  0.401530    0.118530    0.000000    0.000000   0.119137   0.492100  0.381200   -0.978393
   0   4   0  0  0.335948  1.488325   10.711969    0.000000  360.000000  10.766777  11.105900  0.048300   -7.021170
   1   4   0  0  0.345872  1.445622   -9.870049    0.000000  180.000000   9.920550  10.008000  0.022400   -3.904017
   2   4   0  0  0.374067  1.336659   29.630662    0.000000  360.000000  29.782270  29.335500  0.097300    4.591676
   3   4   0  0  0.416842  1.199495   -5.932627    0.000000  180.000000   5.962982   6.277600  0.065500   -4.803335
   4   4   0  0  0.470235  1.063298   31.084589    0.000000  360.000000  31.243636  30.779500  0.080100    5.794451
   5   4   0  0  0.531053  0.941526    4.725680    0.000000    0.000000   4.749860   4.712200  0.030700    1.226695
   6   4   0  0  0.597031  0.837478   11.680557    0.000000  360.000000  11.740321  11.702600  0.057600    0.654886
   7   4   0  0  0.666638  0.750032    0.864443    0.000000    0.000000   0.868866   1.110200  0.113100   -2.133809
   8   4   0  0  0.738851  0.676727    6.343457    0.000000  360.000000   6.375914   6.273900  0.036400    2.802579
   9   4   0  0  0.812974  0.615026   -2.564760    0.000000  180.000000   2.577883   2.635100  0.046200   -1.238466
  10   4   0  0  0.888530  0.562727    6.816946    0.000000  360.000000   6.851826   6.799100  0.044800    1.176914
  11   4   0  0  0.965182  0.518037   -0.623512    0.000000  180.000000   0.626702   0.639500  0.232100   -0.055140
  12   4   0  0  1.042688  0.479530    3.173658    0.000000  360.000000   3.189896   3.149200  0.042300    0.962082
  13   4   0  0  1.120872  0.446081    0.426282    0.000000    0.000000   0.428463   0.582300  0.434100   -0.354382
  14   4   0  0  1.199601  0.416805    0.699318    0.000000  360.000000   0.702896   0.801500  0.156700   -0.629254
  15   4   0  0  1.278775  0.390999   -0.076960    0.000000  180.000000   0.077354   0.253900  0.302500   -0.583624
   0   6   0  0  0.503922  0.992217   29.137146    0.000000  360.000000  29.286228  28.914000  0.085300    4.363755
   1   6   0  0  0.510592  0.979256   -4.989368    0.000000  180.000000   5.014896   5.166600  0.058900   -2.575611
   2   6   0  0  0.530097  0.943224   17.729793    0.000000  360.000000  17.820509  17.922600  0.041000   -2.490020
   3   6   0  0  0.561100  0.891106   -2.797719    0.000000  180.000000   2.812034   2.903300  0.118000   -0.773445
   4   6   0  0  0.601828  0.830802    9.106489    0.000000  360.000000   9.153084   9.287000  0.038500   -3.478349
   5   6   0  0  0.650456  0.768691    2.834800    0.000000    0.000000   2.849305   2.909000  0.040600   -1.470321
   6   6   0  0  0.705352  0.708865   12.248699    0.000000  360.000000  12.311370  12.033700  0.049000    5.666740
   7   6   0  0  0.765169  0.653451   -0.745607    0.000000  180.000000   0.749421   0.613600  0.217100    0.625617
   8   6   0  0  0.828841  0.603252    9.293488    0.000000  360.000000   9.341039   9.351400  0.046400   -0.223301
   9   6   0  0  0.895546  0.558319   -2.119995    0.000000  180.000000   2.130842   2.333900  0.062000   -3.275131
  10   6   0  0  0.964656  0.518319    2.994528    0.000000  360.000000   3.009850   2.966100  0.044900    0.974390
  11   6   0  0  1.035689  0.482770    0.023202    0.000000    0.000000   0.023320   0.477000  0.398500   -1.138469
  12   6   0  0  1.108276  0.451151    1.269452    0.000000  360.000000   1.275947   1.240900  0.092000    0.380945
  13   6   0  0  1.182130  0.422965    0.182808    0.000000    0.000000   0.183743   0.609000  0.393800   -1.079881
  14   6   0  0  1.257028  0.397764    1.239754    0.000000  360.000000   1.246097   1.036900  0.110100    1.900066
   0   8   0  0  0.671896  0.744162   14.266863    0.000000  360.000000  14.339860  14.342200  0.078000   -0.029995
   1   8   0  0  0.676913  0.738648    3.788533    0.000000    0.000000   3.807917   3.796800  0.037100    0.299655
   2   8   0  0  0.691744  0.722811   11.238958    0.000000  360.000000  11.296463  11.285900  0.035800    0.295047
   3   8   0  0  0.715780  0.698539    2.057204    0.000000    0.000000   2.067730   1.952200  0.054600    2.115932
   4   8   0  0  0.748134  0.668330    8.649500    0.000000  360.000000   8.693756   8.520600  0.043300    3.998989
   5   8   0  0  0.787782  0.634693   -3.871956    0.000000  180.000000   3.891767   3.876000  0.033400    0.472070
   6   8   0  0  0.833684  0.599748    7.978511    0.000000  360.000000   8.019334   8.027200  0.046900   -0.167729
   7   8   0  0  0.884867  0.565056   -1.498851    0.000000  180.000000   1.506520   1.526500  0.069800   -0.286244
   8   8   0  0  0.940470  0.531649    4.654647    0.000000  360.000000   4.678463   4.648700  0.040100    0.742225
   9   8   0  0  0.999755  0.500123    1.059764    0.000000    0.000000   1.065186   1.075800  0.138000   -0.076912
  10   8   0  0  1.062106  0.470763    1.978579    0.000000  360.000000   1.988702   2.052300  0.059400   -1.070672
  11   8   0  0  1.127013  0.443650   -0.229435    0.000000  180.000000   0.230609   0.581700  0.437100   -0.803228
  12   8   0  0  1.194061  0.418739    1.453771    0.000000  360.000000   1.461210   1.419600  0.072400    0.574717
  13   8   0  0  1.262909  0.395911   -0.676043    0.000000  180.000000   0.679502   0.758800  0.145500   -0.545002
   0  10   0  0  0.839870  0.595330    4.244022    0.000000  360.000000   4.265737   4.155800  0.060500    1.817143
   1  10   0  0  0.843889  0.592495   -0.083898    0.000000  180.000000   0.084327   0.274400  0.315600   -0.602259
   2  10   0  0  0.855831  0.584227    7.081256    0.000000  360.000000   7.117488   7.142300  0.041600   -0.596441
   3  10   0  0  0.875373  0.571185   -0.699240    0.000000  180.000000   0.702817   0.553800  0.405200    0.367763
   4  10   0  0  0.902021  0.554311    7.712419    0.000000  360.000000   7.751880   7.700100  0.047500    1.090103
   5  10   0  0  0.935167  0.534664   -0.671240    0.000000  180.000000   0.674674   0.366700  0.434100    0.709454
   6  10   0  0  0.974149  0.513268    3.300299    0.000000  360.000000   3.317185   3.303200  0.040300    0.347024
   7  10   0  0  1.018296  0.491016   -0.014268    0.000000  180.000000   0.014341   0.446300  0.401900   -1.074793
   8  10   0  0  1.066968  0.468617    1.663456    0.000000  360.000000   1.671967   1.578000  0.074800    1.256245
   9  10   0  0  1.119575  0.446598   -0.331618    0.000000  180.000000   0.333315   0.725700  0.199300   -1.968818
  10  10   0  0  1.175587  0.425319    2.085920    0.000000  360.000000   2.096592   2.089500  0.054600    0.129896
  11  10   0  0  1.234543  0.405008   -0.537446    0.000000  180.000000   0.540196   0.558600  0.204400   -0.090039
  12  10   0  0  1.296040  0.385791    1.132919    0.000000  360.000000   1.138715   1.097200  0.059000    0.703649
   0  12   0  0  1.007844  0.496108    4.085492    0.000000  360.000000   4.106396   4.049400  0.061100    0.932828
   1  12   0  0  1.011196  0.494464   -1.073988    0.000000  180.000000   1.079483   1.139000  0.103600   -0.574486
   2  12   0  0  1.021183  0.489628    3.526845    0.000000  360.000000   3.544891   3.549300  0.032200   -0.136939
   3  12   0  0  1.037616  0.481874   -0.804902    0.000000  180.000000   0.809021   1.037500  0.139400   -1.639019
   4  12   0  0  1.060193  0.471612    2.486160    0.000000  360.000000   2.498881   2.509600  0.050100   -0.213949
   5  12   0  0  1.088534  0.459333    0.571201    0.000000    0.000000   0.574124   0.529000  0.443300    0.101790
   6  12   0  0  1.122201  0.445553    2.029558    0.000000  360.000000   2.039943   2.125900  0.059100   -1.454436
   7  12   0  0  1.160731  0.430763   -0.214534    0.000000  180.000000   0.215632   0.343500  0.418300   -0.305685
   8  12   0  0  1.203657  0.415401    1.754957    0.000000  360.000000   1.763937   1.776300  0.055700   -0.221961
   9  12   0  0  1.250526  0.399832   -0.722454    0.000000  180.000000   0.726151   0.779800  0.146400   -0.366457
   0  14   0  0  1.175818  0.425236    2.217771    0.000000  360.000000   2.229118   2.391800  0.070000   -2.324027
   1  14   0  0  1.178692  0.424199    0.180777    0.000000    0.000000   0.181702   0.336200  0.408500   -0.378209
   2  14   0  0  1.187272  0.421134    1.550039    0.000000  360.000000   1.557970   1.547800  0.056600    0.179679
   3  14   0  0  1.201435  0.416169    0.092549    0.000000    0.000000   0.093022   0.475000  0.248400   -1.537752
   4  14   0  0  1.220987  0.409505    1.063672    0.000000  360.000000   1.069115   1.033300  0.084700    0.422841
   5  14   0  0  1.245674  0.401389   -0.372828    0.000000  180.000000   0.374736   0.523800  0.377700   -0.394664
   6  14   0  0  1.275199  0.392096    1.286262    0.000000  360.000000   1.292843   1.315400  0.060800   -0.371001
   1   1   1  0  0.142776  3.501991   48.164370  -42.583536  318.519156  64.618632  69.564700  2.245800   -2.202364
   2   1   1  0  0.201702  2.478905   34.103905   -6.230321  349.647005  34.845715  36.945400  0.263600   -7.965421
   3   1   1  0  0.272974  1.831676    4.385975  -24.940357  279.973968  25.452643  25.709900  0.110400   -2.330222
   4   1   1  0  0.349111  1.432209   -4.826249    1.341199  164.469553   5.034770   5.034100  0.021200    0.031626
   5   1   1  0  0.427522  1.169532   10.081210  -18.235296  298.935594  20.943041  20.742500  0.039100    5.128935
   6   1   1  0  0.507152  0.985898   -8.317799    1.589782  169.179548   8.511693   8.571100  0.029800   -1.993533
   7   1   1  0  0.587507  0.851054   13.559460  -12.879840  316.472460  18.797272  18.629300  0.033700    4.984333
   8   1   1  0  0.668325  0.748139    2.574121   -0.473592  349.575178   2.630716   2.592100  0.076400    0.505449
   9   1   1  0  0.749456  0.667151    5.297913   -6.920208  307.436631   8.759933   8.760900  0.033000   -0.029291
  10   1   1  0  0.830808  0.601824    1.990209   -0.216090  353.803291   2.012149   1.980300  0.044200    0.720566
  11   1   1  0  0.912323  0.548051    1.246717   -3.396520  290.156015   3.636613   3.632200  0.026200    0.168435
  12   1   1  0  0.993960  0.503038   -1.067887    0.289540  164.829895   1.112104   1.106500  0.086000    0.065166
  13   1   1  0  1.075692  0.464817    1.441329   -1.799747  308.689532   2.317555   2.317900  0.036100   -0.009548
  14   1   1  0  1.157498  0.431966   -0.394715    0.073738  169.418417   0.403598   0.507000  0.352900   -0.293006
  15   1   1  0  1.239364  0.403433    0.857842   -0.824311  316.141959   1.195785   1.172900  0.055200    0.414582
   1   3   1  0  0.277156  1.804037    1.071126  -24.334520  272.520345  24.482713  24.740600  0.079500   -3.243862
   2   3   1  0  0.311632  1.604459    8.287788   -0.646734  355.537987   8.355518   8.393400  0.028600   -1.324561
   3   3   1  0  0.361864  1.381735   32.555196  -25.554479  321.869555  41.598619  40.557900  0.147200    7.070104
   4   3   1  0  0.422267  1.184086   -2.021478    0.713605  160.556392   2.154705   2.193500  0.026000   -1.492122
   5   3   1  0  0.489086  1.022315   16.495473  -16.817070  314.446887  23.677152  23.821200  0.038300   -3.761042
   6   3   1  0  0.560030  0.892809   -2.463802    0.651060  165.197918   2.561411   2.588200  0.036800   -0.727954
   7   3   1  0  0.633715  0.788998    1.500545   -9.395227  279.074272   9.562982   9.683800  0.032200   -3.752112
   8   3   1  0  0.709287  0.704933    1.064984    0.181990    9.697331   1.085949   1.148200  0.072900   -0.853917
   9   3   1  0  0.786203  0.635968    3.927922   -6.198601  302.361566   7.375887   7.363800  0.033100    0.365153
  10   3   1  0  0.864102  0.578635    0.212643    0.270699   51.849168   0.345992   0.389300  0.234600   -0.184602
  11   3   1  0  0.942743  0.530367    4.399442   -3.617847  320.568096   5.725099   5.731600  0.027900   -0.233010
  12   3   1  0  1.021953  0.489259   -0.640762    0.235138  159.848572   0.686035   0.570100  0.293700    0.394741
  13   3   1  0  1.101609  0.453881    1.046122   -1.495160  304.979415   1.834131   1.879600  0.044600   -1.019489
  14   3   1  0  1.181622  0.423147   -0.064622    0.065759  134.500383   0.092668   0.528600  0.316800   -1.376046
  15   3   1  0  1.261924  0.396220    0.077216   -0.634140  276.942432   0.642093   0.720600  0.195400   -0.401777
   1   5   1  0  0.435519  1.148056   14.019109  -19.472770  305.751396  24.117022  23.934100  0.035500    5.152738
   2   5   1  0  0.458231  1.091153  -13.191861    2.641984  168.674984  13.522658  13.619700  0.027100   -3.580898
   3   5   1  0  0.493768  1.012622   12.157854  -16.093830  307.068702  20.273099  20.402000  0.036800   -3.502741
   4   5   1  0  0.539602  0.926609    2.526482   -0.086030  358.049763   2.540881   2.691500  0.026900   -5.599221
   5   5   1  0  0.593352  0.842670    8.243544  -12.142746  304.172046  14.751685  14.689800  0.030800    2.009242
   6   5   1  0  0.653066  0.765620    5.218412   -0.290961  356.808686   5.253259   5.267200  0.023800   -0.585742
   7   5   1  0  0.717256  0.697101    5.837031   -8.392029  304.820337  10.274685  10.236700  0.030100    1.261949
   8   5   1  0  0.784825  0.637085   -2.553976    1.017893  158.270131   2.763413   2.748000  0.030500    0.505332
   9   5   1  0  0.854971  0.584815    4.170687   -4.969201  310.006982   6.520688   6.595900  0.030600   -2.457896
  10   5   1  0  0.927111  0.539310   -1.947215    0.585741  163.258198   2.043810   2.052500  0.042700   -0.203513
  11   5   1  0  1.000812  0.499594    1.880311   -2.503573  306.908422   3.147066   3.106400  0.030600    1.328954
  12   5   1  0  1.075755  0.464790    0.760178    0.008705    0.656064   0.764118   0.674500  0.174900    0.512393
  13   5   1  0  1.151696  0.434142    0.665981   -1.230682  298.419947   1.406484   1.264700  0.060200    2.355213
  14   5   1  0  1.228451  0.407017    0.218166    0.094158   23.344425   0.238833   0.487500  0.210800   -1.179632
   1   7   1  0  0.599140  0.834530   13.680620  -13.350636  315.699403  19.213214  19.135300  0.032800    2.375435
   2   7   1  0  0.615847  0.811890    2.054955   -0.395024  349.118772   2.103286   2.081200  0.031100    0.710148
   3   7   1  0  0.642727  0.777935    2.865942  -10.171158  285.736319  10.621285  10.708700  0.035200   -2.483377
   4   7   1  0  0.678573  0.736840   -0.288337    0.671072  113.251583   0.734131   0.900900  0.084500   -1.973596
   5   7   1  0  0.722051  0.692472    4.536551   -8.285960  298.700642   9.494891   9.544600  0.035100   -1.416206
   6   7   1  0  0.771872  0.647776   -1.882110    1.025497  151.415547   2.154324   2.092100  0.036400    1.709453
   7   7   1  0  0.826890  0.604675    7.163268   -6.177972  319.223822   9.507773   9.473200  0.032900    1.050866
   8   7   1  0  0.886138  0.564246   -0.464064    0.404646  138.912806   0.618856   0.489900  0.334100    0.385980
   9   7   1  0  0.948824  0.526968    2.533092   -3.313942  307.393363   4.192525   4.150400  0.024800    1.698577
  10   7   1  0  1.014311  0.492946    0.421551    0.178617   22.963055   0.460174   0.663300  0.252500   -0.804459
  11   7   1  0  1.082089  0.462069    0.238254   -1.681612  278.064106   1.707096   1.778200  0.045000   -1.580085
  12   7   1  0  1.151755  0.434120   -0.151944    0.270560  119.318129   0.311894   0.582400  0.300600   -0.899888
  13   7   1  0  1.222987  0.408835    0.838748   -1.003234  309.897105   1.314351   1.332400  0.048600   -0.371378
  14   7   1  0  1.295525  0.385944   -0.303747    0.171140  150.601909   0.350426   0.363800  0.240700   -0.055564
   1   9   1  0  0.764651  0.653893    3.860723   -7.151560  298.362104   8.168697   8.228600  0.031900   -1.877825
   2   9   1  0  0.777811  0.642830    2.715070   -0.104297  357.800109   2.730975   2.706900  0.030900    0.779115
   3   9   1  0  0.799263  0.625577    6.294437   -7.072556  311.668458   9.516336   9.477700  0.033700    1.146469
   4   9   1  0  0.828362  0.603601   -1.328475    0.641414  154.227838   1.482762   1.526000  0.052400   -0.825152
   5   9   1  0  0.864338  0.578477    4.753818   -5.316617  311.801283   7.168476   7.213300  0.032200   -1.392064
   6   9   1  0  0.906371  0.551650   -1.887333    0.630783  161.519371   2.000135   1.896600  0.044200    2.342417
   7   9   1  0  0.953661  0.524295    1.569825   -3.212172  296.045281   3.593541   3.618300  0.026300   -0.941397
   8   9   1  0  1.005467  0.497281    0.659564    0.218729   18.346928   0.698442   0.686500  0.183000    0.065254
   9   9   1  0  1.061127  0.471197    1.081111   -2.106672  297.166182   2.379998   2.318300  0.039400    1.565930
  10   9   1  0  1.120066  0.446402    0.217725    0.284646   52.587694   0.360202   0.485900  0.366800   -0.342689
  11   9   1  0  1.181795  0.423085    1.289634   -1.339560  313.912143   1.868970   1.829400  0.039500    1.001785
  12   9   1  0  1.245898  0.401317   -0.560879    0.268700  154.402379   0.625103   0.709700  0.134100   -0.630852
   1  11   1  0  0.931044  0.537031    2.224941   -4.039125  298.848049   4.634981   4.649500  0.022100   -0.656952
   2  11   1  0  0.941882  0.530852   -1.610159    0.525556  161.923314   1.702426   1.689000  0.049600    0.270687
   3  11   1  0  0.959674  0.521010    3.544148   -3.696079  313.797868   5.146942   5.172300  0.023500   -1.079076
   4  11   1  0  0.984041  0.508109   -0.038368    0.205790  100.561049   0.210407   0.394500  0.340200   -0.541130
   5  11   1  0  1.014511  0.492848    2.084414   -2.773797  306.923613   3.487440   3.485700  0.027300    0.063743
   6  11   1  0  1.050553  0.475940    0.733641    0.118896    9.205479   0.747016   0.710100  0.171500    0.215251
   7  11   1  0  1.091615  0.458037    0.751756   -1.927830  291.303269   2.079807   2.068700  0.040500    0.274236
   8  11   1  0  1.137153  0.439695   -0.404168    0.383242  136.522309   0.559829   0.640600  0.190100   -0.424887
   9  11   1  0  1.186652  0.421354    1.081007   -1.330353  309.096315   1.722952   1.754600  0.041200   -0.768167
  10  11   1  0  1.239637  0.403344   -0.568353    0.296507  152.449213   0.644327   0.577800  0.138300    0.481037
  11  11   1  0  1.295682  0.385897    0.755358   -0.747169  315.312262   1.067899   0.977200  0.046700    1.942163
   1  13   1  0  1.097919  0.455407    1.972681   -2.140611  312.662125   2.925854   2.935900  0.027200   -0.369336
   2  13   1  0  1.107125  0.451620   -0.326723    0.080648  166.134278   0.338252   0.476700  0.344100   -0.402349
   3  13   1  0  1.122300  0.445514    0.674084   -1.675791  291.912390   1.815527   1.862400  0.038800   -1.208078
   4  13   1  0  1.143206  0.437366    0.098333    0.152735   57.226095   0.182581   0.411700  0.332200   -0.689701
   5  13   1  0  1.169537  0.427520    0.709690   -1.413049  296.667627   1.589345   1.635000  0.046600   -0.979712
   6  13   1  0  1.200935  0.416342   -0.064020    0.244257  104.686889   0.253800   0.458400  0.182700   -1.119869
   7  13   1  0  1.237015  0.404199    1.145720   -1.144640  315.027018   1.627815   1.651500  0.036900   -0.641864
   8  13   1  0  1.277380  0.391426   -0.348923    0.214417  148.428777   0.411634   0.316600  0.254200    0.373856
   1  15   1  0  1.265085  0.395230    0.639865   -0.926294  304.635935   1.131570   1.177000  0.048500   -0.936703
   2  15   1  0  1.273083  0.392747    0.286502    0.002990    0.597872   0.287984   0.354700  0.225400   -0.295991
   3  15   1  0  1.286301  0.388711    0.548763   -0.879867  301.951352   1.042276   1.003700  0.041700    0.925073
   0   0   2  0  0.162048  3.085500   31.751163  -60.576031  297.661456  68.742860  64.741700  4.256700    0.939968
   2   0   2  0  0.230921  2.165241  -16.416858  -33.574273  243.942691  37.564274  38.654700  0.265700   -4.103973
   4   0   2  0  0.366769  1.363256  -26.570933  -18.880556  215.396529  32.762636  32.116100  0.239100    2.704040
   6   0   2  0  0.519465  0.962528   -1.221903  -19.389294  266.394018  19.527162  19.444000  0.072000    1.155026
   8   0   2  0  0.677716  0.737772    1.290485  -12.199492  276.038400  12.330325  12.241700  0.044500    1.991580
  10   0   2  0  0.838381  0.596387   -3.827424   -4.938030  232.221046   6.279632   6.293100  0.052000   -0.259000
  12   0   2  0  1.000299  0.499851   -1.959440   -2.642419  233.441860   3.306480   3.306200  0.041400    0.006764
  14   0   2  0  1.162945  0.429943    0.183615   -1.619904  276.466836   1.638618   1.612900  0.066100    0.389083
   0   2   2  0  0.233399  2.142257  -21.907987  -31.006238  234.756231  38.159324  38.761700  0.417100   -1.444201
   1   2   2  0  0.247470  2.020451   23.774274   -8.926365  339.420692  25.524739  25.760100  0.165300   -1.423839
   2   2   2  0  0.285552  1.750995   -9.566183  -32.109217  253.409817  33.675361  33.358200  0.149100    2.127167
   3   2   2  0  0.339663  1.472047   11.595780   -3.593230  342.783153  12.201859  12.345600  0.026200   -5.486296
   4   2   2  0  0.403404  1.239453   -2.785911  -25.714515  263.816691  25.997328  25.931800  0.053400    1.227107
   5   2   2  0  0.472896  1.057314  -10.226345    4.208087  157.633091  11.114887  11.197800  0.044900   -1.846621
   6   2   2  0  0.545948  0.915838   -5.924202  -15.682666  249.305702  16.850089  16.899200  0.038100   -1.289002
   7   2   2  0  0.621305  0.804757   -1.475878    0.539597  159.917059   1.579467   1.732800  0.063700   -2.407113
   8   2   2  0  0.698222  0.716105   -4.644446   -9.407588  243.724842  10.545277  10.461700  0.036700    2.277310
   9   2   2  0  0.776235  0.644135    3.734074   -1.068201  344.035848   3.903731   3.897800  0.026400    0.224664
  10   2   2  0  0.855043  0.584766   -1.368528   -5.779132  256.677477   5.969346   5.913600  0.036700    1.518973
  11   2   2  0  0.934446  0.535076   -0.003930    0.370642   90.607482   0.372560   0.584700  0.214800   -0.987618
  12   2   2  0  1.014304  0.492949   -0.454048   -2.915312  261.147525   2.965554   2.979200  0.031900   -0.427772
  13   2   2  0  1.094518  0.456822   -0.938217    0.426940  155.531859   1.036065   0.814400  0.140200    1.581064
  14   2   2  0  1.175014  0.425527   -0.533917   -1.197054  245.961900   1.317433   1.315600  0.055000    0.033328
  15   2   2  0  1.255738  0.398172    0.152574   -0.048587  342.336037   0.160943   0.356400  0.319800   -0.611186
   0   4   2  0  0.372989  1.340522  -23.380461  -20.921518  221.823107  31.534977  31.313500  0.115400    1.919207
   1   4   2  0  0.381952  1.309066   -7.175140    3.587025  153.438429   8.062852   8.174500  0.027500   -4.059942
   2   4   2  0  0.407659  1.226516   -5.681661  -24.584992  256.987238  25.362083  25.186800  0.047600    3.682415
   3   4   2  0  0.447233  1.117987   -4.065273    2.117805  152.482723   4.607289   4.651800  0.021300   -2.089732
   4   4   2  0  0.497374  1.005280    2.150735  -21.422683  275.733013  21.640536  21.715000  0.047000   -1.584334
   5   4   2  0  0.555227  0.900533    4.649631   -1.531490  341.769210   4.920406   4.917900  0.025500    0.098262
   6   4   2  0  0.618632  0.808235   -6.965387  -12.214397  240.305599  14.132816  14.129400  0.036400    0.093838
   7   4   2  0  0.686051  0.728808    1.586495    0.227599    8.163963   1.610938   1.649700  0.041500   -0.934013
   8   4   2  0  0.756413  0.661015   -5.242059   -7.635936  235.530461   9.309501   9.381200  0.040600   -1.765977
   9   4   2  0  0.828967  0.603160   -1.587996    1.299827  140.698563   2.062641   2.157600  0.038800   -2.447404
  10   4   2  0  0.903186  0.553596   -0.004649   -5.207868  269.948849   5.234517   5.284000  0.027400   -1.805965
  11   4   2  0  0.978691  0.510887   -0.219762    0.297798  126.425755   0.372001   0.565700  0.222000   -0.872519
  12   4   2  0  1.055206  0.473841   -0.198824   -2.416112  265.295680   2.436682   2.421300  0.036200    0.424930
  13   4   2  0  1.132526  0.441491    0.568252   -0.077542  352.229597   0.576452   0.579000  0.216900   -0.011746
  14   4   2  0  1.210497  0.413053   -0.811124   -0.927617  228.832991   1.238536   1.193200  0.057400    0.789834
  15   4   2  0  1.289001  0.387897    0.058934    0.114507   62.766183   0.129442   0.366600  0.238800   -0.993124
   0   6   2  0  0.529337  0.944579    1.558904  -21.127201  274.220013  21.293029  21.197800  0.048100    1.979817
   1   6   2  0  0.535690  0.933376   -4.050111    1.193945  163.574847   4.244033   4.411500  0.023300   -7.187444
   2   6   2  0  0.554312  0.902019   -6.159303  -16.205411  249.189359  17.425149  17.506000  0.039400   -2.052046
   3   6   2  0  0.584032  0.856118   -1.739492    0.819138  154.783961   1.932549   1.921400  0.033700    0.330844
   4   6   2  0  0.623263  0.802229   -9.494030  -11.441070  230.313431  14.943305  15.006100  0.038800   -1.618437
   5   6   2  0  0.670338  0.745892    3.499696   -0.115577  358.108503   3.519521   3.481900  0.025100    1.498831
   6   6   2  0  0.723728  0.690868   -1.992075  -10.441883  259.199050  10.684596  10.338800  0.050100    6.902118
   7   6   2  0  0.782140  0.639272    0.265516    0.885233   73.303975   0.928924   1.056500  0.086500   -1.474873
   8   6   2  0  0.844533  0.592043    0.220446   -6.935798  271.820463   6.974806   7.076400  0.032300   -3.145316
   9   6   2  0  0.910089  0.549397   -1.277491    0.841679  146.620997   1.537667   1.553500  0.051500   -0.307445
  10   6   2  0  0.978172  0.511157   -1.774393   -3.004255  239.432779   3.506981   3.581200  0.027600   -2.689084
  11   6   2  0  1.048290  0.476967    0.420123    0.126778   16.791934   0.441081   0.479900  0.340200   -0.114108
  12   6   2  0  1.120060  0.446405   -1.214284   -1.573829  232.348100   1.997990   1.973600  0.042400    0.575228
  13   6   2  0  1.193185  0.419046    0.433819    0.130756   16.773096   0.455415   0.393600  0.232100    0.266328
  14   6   2  0  1.267430  0.394499   -0.049742   -1.003558  267.162405   1.009931   0.931500  0.069500    1.128510
   0   8   2  0  0.691162  0.723420   -2.109465  -11.292770  259.419216  11.546882  11.595000  0.034100   -1.411075
   1   8   2  0  0.696039  0.718350    3.447620   -1.240879  340.205004   3.682880   3.646100  0.026100    1.409200
   2   8   2  0  0.710471  0.703758   -3.999822  -10.427453  249.013899  11.225418  11.196400  0.037400    0.775872
   3   8   2  0  0.733894  0.681297    2.426360   -0.305182  352.831119   2.457990   2.341900  0.027600    4.206158
   4   8   2  0  0.765483  0.653182   -3.878450   -8.741584  246.074186   9.612282   9.585400  0.029800    0.902071
   5   8   2  0  0.804276  0.621677   -2.515712    1.819503  144.123452   3.120624   3.094000  0.028300    0.940780
   6   8   2  0  0.849287  0.588729   -1.110004   -6.480543  260.280547   6.608559   6.785100  0.033700   -5.238610
   7   8   2  0  0.899583  0.555813   -0.628550    0.715392  131.302843   0.957164   0.871300  0.118000    0.727664
   8   8   2  0  0.954329  0.523928   -1.069882   -3.845971  254.454359   4.012435   3.948300  0.026000    2.466750
   9   8   2  0  1.012803  0.493680    1.479926   -0.133743  354.836112   1.493560   1.518900  0.057600   -0.439932
  10   8   2  0  1.074397  0.465378   -1.327525   -2.190034  238.777169   2.574074   2.581600  0.033900   -0.222002
  11   8   2  0  1.138604  0.439134    0.228705    0.364029   57.860491   0.432111   0.579900  0.321600   -0.459544
  12   8   2  0  1.205007  0.414935   -0.363984   -1.337206  254.773152   1.392949   1.392400  0.049200    0.011163
  13   8   2  0  1.273263  0.392692   -0.353007    0.350159  135.232042   0.499762   0.479800  0.142800    0.139789
   0  10   2  0  0.855361  0.584549   -4.668802   -5.433875  229.330728   7.200783   7.235900  0.050500   -0.695396
   1  10   2  0  0.859307  0.581864    0.197618    0.371243   61.972995   0.422716   0.780400  0.161000   -2.221639
   2  10   2  0  0.871038  0.574028   -1.690553   -6.164643  254.664572   6.424952   6.413800  0.032600    0.342072
   3  10   2  0  0.890246  0.561643   -0.107387    0.617045   99.872534   0.629524   0.672300  0.243500   -0.175669
   4  10   2  0  0.916461  0.545577    0.263863   -5.618208  272.688964   5.653179   5.577700  0.026600    2.837538
   5  10   2  0  0.949104  0.526813   -0.102426    0.268885  110.853368   0.289205   0.325000  0.336200   -0.106469
   6  10   2  0  0.987535  0.506311   -1.845926   -3.267920  240.539514   3.772435   3.809500  0.026000   -1.425566
   7  10   2  0  1.031110  0.484914    0.539048    0.224361   22.597948   0.586863   0.574000  0.278500    0.046185
   8  10   2  0  1.079204  0.463305   -1.715113   -2.122218  231.055893   2.742592   2.724700  0.032100    0.557368
   9  10   2  0  1.131241  0.441992    0.210504    0.463815   65.588902   0.511956   0.596500  0.312700   -0.270369
  10  10   2  0  1.186704  0.421335   -0.082638   -1.649854  267.132550   1.660374   1.652400  0.043800    0.182055
  11  10   2  0  1.245133  0.401563   -0.162596    0.332499  116.059194   0.372019   0.344800  0.319800    0.085113
   0  12   2  0  1.020789  0.489817   -0.846704   -3.594737  256.746134   3.712004   3.770900  0.034300   -1.717088
   1  12   2  0  1.024098  0.488235   -0.849986    0.371460  156.393746   0.932355   0.987200  0.073300   -0.748220
   2  12   2  0  1.033961  0.483577   -0.999816   -3.069612  251.958845   3.244853   3.293700  0.028900   -1.690194
   3  12   2  0  1.050193  0.476103   -0.445047    0.332807  143.210770   0.558565   0.422800  0.336200    0.403824
   4  12   2  0  1.072506  0.466198   -1.215176   -2.305571  242.208039   2.619541   2.641700  0.028800   -0.769407
   5  12   2  0  1.100530  0.454327    0.894327    0.011972    0.766925   0.898984   0.923100  0.078300   -0.308001
   6  12   2  0  1.133841  0.440979   -0.840262   -1.966065  246.858984   2.149036   2.139200  0.037400    0.262983
   7  12   2  0  1.171988  0.426626    0.218525    0.328753   56.387665   0.396775   0.449300  0.348000   -0.150934
   8  12   2  0  1.214516  0.411687   -0.233922   -1.476448  260.997133   1.502513   1.572200  0.043600   -1.598332
   9  12   2  0  1.260982  0.396516   -0.332353    0.373462  131.666662   0.502490   0.472700  0.289900    0.102759
   0  14   2  0  1.186932  0.421254   -0.147250   -1.660812  264.933317   1.675858   1.653600  0.050600    0.439885
   1  14   2  0  1.189779  0.420246    0.200811   -0.091378  335.532381   0.221753   0.512100  0.200700   -1.446673
   2  14   2  0  1.198279  0.417265   -0.645150   -1.437396  245.827917   1.583601   1.574200  0.043500    0.216111
   3  14   2  0  1.212314  0.412434    0.246949    0.025927    5.993560   0.249577   0.442700  0.332200   -0.581346
   4  14   2  0  1.231693  0.405945   -0.797411   -1.199377  236.381865   1.447636   1.482500  0.038500   -0.905548
   5  14   2  0  1.256171  0.398035   -0.074199    0.297135  104.020905   0.307826   0.541700  0.168600   -1.387154
   6  14   2  0  1.285454  0.388967   -0.182778   -1.045838  260.086724   1.067122   1.034000  0.044200    0.749369
   1   1   3  0  0.270008  1.851798  -21.789904  -16.735029  217.524895  27.615313  27.149300  0.120700    3.860921
   2   1   3  0  0.305292  1.637778   17.857749  -11.329381  327.607985  21.256590  20.782100  0.061900    7.665430
   3   1   3  0  0.356419  1.402845  -34.996299   -3.635345  185.930500  35.364634  34.511000  0.128300    6.653420
   4   1   3  0  0.417610  1.197290   -2.581131    2.211544  139.409637   3.416385   3.499500  0.022800   -3.645381
   5   1   3  0  0.485071  1.030777  -21.462987   -5.536157  194.463590  22.278899  22.405000  0.044900   -2.808479
   6   1   3  0  0.556527  0.898429   -5.560011    3.240990  149.761632   6.468590   6.486500  0.028800   -0.621865
   7   1   3  0  0.630622  0.792868   -9.075310   -6.232412  214.479085  11.065608  11.095400  0.029500   -1.009883
   8   1   3  0  0.706525  0.707689    1.949940   -1.410562  324.118496   2.418961   2.403600  0.036400    0.421997
   9   1   3  0  0.783711  0.637990   -7.032703   -2.364097  198.580463   7.457387   7.488700  0.035100   -0.892117
  10   1   3  0  0.861836  0.580157    1.721621   -0.757728  336.244518   1.890616   1.912200  0.045800   -0.471260
  11   1   3  0  0.940666  0.531538   -4.893139   -0.705615  188.205766   4.969049   4.962700  0.033000    0.192381
  12   1   3  0  1.020037  0.490178   -0.656669    0.584404  138.332484   0.883555   0.869500  0.122600    0.114645
  13   1   3  0  1.099833  0.454615   -1.739164   -0.762289  203.668214   1.908604   1.955200  0.046700   -0.997782
  14   1   3  0  1.179966  0.423741   -0.277964    0.122635  156.193346   0.305369   0.451000  0.344100   -0.423224
  15   1   3  0  1.260373  0.396708   -0.601290   -0.383133  212.504678   0.716629   0.555100  0.253700    0.636691
   1   3   3  0  0.359632  1.390312  -37.026734   -2.250081  183.477536  37.284839  36.503200  0.160100    4.882192
   2   3   3  0  0.386825  1.292574    5.553231   -2.159149  338.753449   5.988699   6.030300  0.023400   -1.777828
   3   3   3  0  0.428328  1.167330  -12.244624  -13.952642  228.730310  18.658577  19.051000  0.056300   -6.970218
   4   3   3  0  0.480446  1.040700   -0.878599    0.573191  146.879891   1.054407   1.232800  0.040100   -4.448695
   5   3   3  0  0.540115  0.925728  -13.204430   -7.121113  208.337864  15.079001  15.375300  0.032900   -9.006036
   6   3   3  0  0.605106  0.826302   -1.231396    0.530468  156.694290   1.347655   1.709200  0.055700   -6.490927
   7   3   3  0  0.673880  0.741972  -15.461661   -0.872560  183.229991  15.565499  15.685800  0.038600   -3.116614
   8   3   3  0  0.745391  0.670789    1.470117   -0.395477  344.943259   1.530171   1.479300  0.051500    0.987791
   9   3   3  0  0.818922  0.610559   -7.041389   -2.214430  197.457716   7.419154   7.237000  0.051500    3.536962
  10   3   3  0  0.893976  0.559299    0.674178    0.099137    8.365317   0.684914   0.701100  0.222600   -0.072712
  11   3   3  0  0.970198  0.515359   -1.874423   -2.089798  228.109794   2.821625   2.861500  0.031900   -1.249997
  12   3   3  0  1.047333  0.477403   -0.253078    0.255618  134.713898   0.361547   0.808500  0.164800   -2.712092
  13   3   3  0  1.125194  0.444368   -1.662362   -0.389744  193.194781   1.716175   1.696200  0.049400    0.404357
  14   3   3  0  1.203641  0.415406    0.071700   -0.018529  345.510668   0.074434   0.493300  0.331800   -1.262404
  15   3   3  0  1.282565  0.389844   -1.096339   -0.055142  182.879352   1.103342   1.091700  0.045300    0.256991
   1   5   3  0  0.492134  1.015983  -19.652018   -7.234327  200.209736  21.048430  21.086200  0.036100   -1.046252
   2   5   3  0  0.512342  0.975910   -8.457274    5.052976  149.142911   9.902212   9.904100  0.022700   -0.083164
   3   5   3  0  0.544358  0.918513  -16.360829   -4.938366  196.795958  17.177327  17.214800  0.030300   -1.236719
   4   5   3  0  0.586250  0.852878    2.508858   -1.442785  330.097799   2.908940   2.914200  0.022200   -0.236957
   5   5   3  0  0.636070  0.786076  -13.344849   -3.691238  195.461654  13.916790  13.864900  0.037900    1.369142
   6   5   3  0  0.692109  0.722430    4.935763   -2.050093  337.444209   5.371936   5.420100  0.027400   -1.757826
   7   5   3  0  0.752978  0.664030   -8.920561   -3.232747  199.920152   9.536807   9.508400  0.039200    0.724669
   8   5   3  0  0.817599  0.611546   -0.957302    1.413658  124.105103   1.716031   1.739700  0.045900   -0.515664
   9   5   3  0  0.885152  0.564874   -4.574478   -2.017181  203.795759   5.025067   5.180900  0.030100   -5.177182
  10   5   3  0  0.955015  0.523552   -0.989219    0.732515  143.480094   1.237205   1.289000  0.065000   -0.796847
  11   5   3  0  1.026715  0.486990   -2.624459   -0.720338  195.348080   2.735445   2.749700  0.034600   -0.411995
  12   5   3  0  1.099894  0.454589    0.884217   -0.430531  334.038226   0.988493   0.953600  0.111800    0.312105
  13   5   3  0  1.174276  0.425794   -1.559167   -0.332051  192.022501   1.602289   1.410700  0.054000    3.547952
  14   5   3  0  1.249645  0.400114    0.399163   -0.028674  355.891124   0.402239   0.403700  0.319800   -0.004568
   1   7   3  0  0.641473  0.779456   -9.748552   -5.951545  211.404296  11.480136  11.533600  0.028700   -1.862842
   2   7   3  0  0.657105  0.760914    1.666225   -1.607780  316.022692   2.327287   2.391400  0.028600   -2.241728
   3   7   3  0  0.682362  0.732749  -15.318965   -1.618564  186.031355  15.483051  15.434000  0.033500    1.464223
   4   7   3  0  0.716227  0.698103    0.860438    0.390007   24.383166   0.949534   0.788400  0.135200    1.191820
   5   7   3  0  0.757547  0.660025  -10.116561   -2.502808  193.895798  10.474880  10.410300  0.035500    1.819161
   6   7   3  0  0.805175  0.620983   -0.269847    1.241589  102.261966   1.277076   1.350300  0.056400   -1.298298
   7   7   3  0  0.858060  0.582710   -3.564919   -3.230970  222.186761   4.835834   4.870700  0.023400   -1.489983
   8   7   3  0  0.915293  0.546273    0.305478   -0.014133  357.351123   0.307369   0.351100  0.336200   -0.130073
   9   7   3  0  0.976108  0.512238   -3.408368   -0.958927  195.713684   3.558810   3.574900  0.030900   -0.520701
  10   7   3  0  1.039877  0.480826    0.849089   -0.305740  340.197058   0.907075   0.728800  0.146200    1.219392
  11   7   3  0  1.106090  0.452043   -2.841118   -0.174601  183.516684   2.861042   2.855800  0.032000    0.163813
  12   7   3  0  1.174334  0.425773    0.312979    0.185999   30.722470   0.365939   0.534200  0.320600   -0.524831
  13   7   3  0  1.244273  0.401841   -0.918126   -0.468887  207.053391   1.036202   1.015800  0.067500    0.302249
   1   9   3  0  0.798254  0.626367   -8.949138   -1.503289  189.535601   9.120953   9.174500  0.031100   -1.721773
   2   9   3  0  0.810869  0.616622    2.655035   -0.870466  341.848022   2.808383   2.849900  0.032100   -1.293355
   3   9   3  0  0.831469  0.601346   -5.989078   -3.239198  208.406776   6.843763   6.735800  0.042900    2.516614
   4   9   3  0  0.859479  0.581748   -0.286194    0.666979  113.223717   0.729501   0.919800  0.091000   -2.091193
   5   9   3  0  0.894203  0.559157   -4.542779   -2.193349  205.772228   5.070375   5.156200  0.021400   -4.010526
   6   9   3  0  0.934895  0.534820   -0.811740    0.593883  143.810184   1.010939   1.067300  0.192600   -0.292633
   7   9   3  0  0.980811  0.509782   -4.272534   -0.438441  185.859103   4.316946   4.358400  0.026200   -1.582197
   8   9   3  0  1.031253  0.484847    1.158832   -0.336104  343.825898   1.212763   1.224500  0.074600   -0.157334
   9   9   3  0  1.085592  0.460578   -2.698642   -0.552253  191.565378   2.768664   2.779600  0.034200   -0.319778
  10   9   3  0  1.143270  0.437342    0.727555    0.052879    4.156985   0.733206   0.520500  0.351000    0.606001
  11   9   3  0  1.203810  0.415348   -1.028382   -0.692325  213.949125   1.246054   1.225400  0.055900    0.369478
  12   9   3  0  1.266800  0.394695   -0.119707    0.259380  114.773905   0.287132   0.582900  0.163300   -1.811192
   1  11   3  0  0.958834  0.521467   -4.913022   -1.154990  193.229295   5.072782   5.098000  0.026900   -0.937482
   2  11   3  0  0.969361  0.515803   -0.852610    0.915594  132.959959   1.257504   1.264000  0.063200   -0.102789
   3  11   3  0  0.986657  0.506762   -2.946634   -1.380284  205.099672   3.270544   3.289800  0.028900   -0.666284
   4  11   3  0  1.010374  0.494866    0.377991   -0.113716  343.256517   0.396746   0.531400  0.229200   -0.587497
   5  11   3  0  1.040073  0.480735   -2.863916   -0.752509  194.721978   2.976280   2.984200  0.026800   -0.295534
   6  11   3  0  1.075259  0.465004    1.067260   -0.418118  338.606361   1.152105   1.158200  0.065700   -0.092767
   7  11   3  0  1.115411  0.448265   -2.696682   -0.443880  189.347200   2.746953   2.703000  0.032400    1.356576
   8  11   3  0  1.160015  0.431029    0.237526    0.312958   52.802499   0.394899   0.344900  0.351900    0.142083
   9  11   3  0  1.208578  0.413709   -1.236912   -0.550585  203.995211   1.360846   1.411900  0.048500   -1.052657
  10  11   3  0  1.260643  0.396623   -0.081690    0.266222  107.058589   0.279898   0.368300  0.248000   -0.356460
   1  13   3  0  1.121582  0.445799   -1.749168   -0.861073  206.209918   1.959600   1.964700  0.036800   -0.138595
   2  13   3  0  1.130595  0.442245   -0.161733   -0.018624  186.568734   0.163635   0.359000  0.363200   -0.537900
   3  13   3  0  1.145459  0.436506   -2.361894   -0.177754  184.303927   2.380692   2.385100  0.033500   -0.131571
   4  13   3  0  1.165950  0.428835    0.394338   -0.026844  356.105744   0.397273   0.489700  0.233200   -0.396340
   5  13   3  0  1.191778  0.419541   -1.813602   -0.314870  189.849286   1.850150   1.781900  0.036300    1.880169
   6  13   3  0  1.222606  0.408963    0.351214    0.144918   22.421953   0.381882   0.542100  0.182500   -0.877908
   7  13   3  0  1.258064  0.397436   -0.829765   -0.542613  213.182100   0.996506   0.994000  0.057400    0.043656
   8  13   3  0  1.297775  0.385275    0.018641    0.127485   81.680992   0.129500   0.237500  0.243300   -0.443895
   1  15   3  0  1.285675  0.388901   -1.010283   -0.185460  190.402111   1.032420   1.046900  0.040000   -0.362004
   2  15   3  0  1.293545  0.386535    0.327429   -0.133498  337.818530   0.355408   0.329700  0.243300    0.105662
   0   0   4  0  0.324097  1.542750   -7.488937    0.990965  172.462190   7.592868   7.668400  0.041200   -1.833301
   2   0   4  0  0.363461  1.375665  -24.017101   17.266655  144.286445  29.731044  29.000900  0.159600    4.574840
   4   0   4  0  0.461842  1.082620  -26.830187   19.739958  143.656712  33.479962  33.047200  0.074500    5.808890
   6   0   4  0  0.590443  0.846822  -10.220907    5.871761  150.123268  11.847785  11.972800  0.056900   -2.197106
   8   0   4  0  0.733538  0.681628   -4.627890    3.063655  146.495514   5.578474   5.451900  0.099800    1.268277
  10   0   4  0  0.884117  0.565536   -5.367334    4.268550  141.505360   6.892842   6.877800  0.046500    0.323490
  12   0   4  0  1.038931  0.481264   -2.883336    1.921401  146.321247   3.482610   3.452000  0.040800    0.750254
  14   0   4  0  1.196336  0.417943   -0.619612    0.299569  154.197233   0.691752   0.732100  0.171600   -0.235129
   0   2   4  0  0.365040  1.369715  -26.033655   19.774379  142.780792  32.859431  32.196400  0.164300    4.035487
   1   2   4  0  0.374193  1.336210    9.840876   -8.834815  318.083548  13.292521  13.323100  0.026000   -1.176125
   2   2   4  0  0.400398  1.248756  -20.345472   13.514997  146.404889  24.550235  24.429700  0.051600    2.335941
   3   2   4  0  0.440625  1.134753    5.600664   -4.396365  321.869078   7.156505   7.265700  0.024100   -4.530921
   4   2   4  0  0.491440  1.017417  -14.128009    8.737918  148.263957  16.696794  16.839100  0.033700   -4.222728
   5   2   4  0  0.549918  0.909226   -5.636843    4.785163  139.671792   7.431869   7.500900  0.029900   -2.308717
   6   2   4  0  0.613872  0.814503  -11.843823    8.709244  143.671444  14.776482  14.931100  0.043800   -3.530103
   7   2   4  0  0.681762  0.733394   -1.024689    0.144655  171.964677   1.040144   1.208300  0.059900   -2.807272
   8   2   4  0  0.752524  0.664430   -8.095872    5.904547  143.895679  10.071590  10.115200  0.037300   -1.169167
   9   2   4  0  0.825421  0.605752    2.540204   -2.125321  320.081673   3.328988   3.329600  0.029700   -0.020592
  10   2   4  0  0.899932  0.555598   -3.851510    2.411283  147.950889   4.567303   4.541800  0.024300    1.049499
  11   2   4  0  0.975689  0.512459    0.227273    0.178808   38.194029   0.290659   0.390200  0.344100   -0.289278
  12   2   4  0  1.052422  0.475095   -1.728058    1.166576  145.977529   2.095634   2.090200  0.041900    0.129691
  13   2   4  0  1.129933  0.442504   -0.583559    0.456382  141.972229   0.744618   0.755300  0.131000   -0.081542
  14   2   4  0  1.208071  0.413883   -0.988147    0.790760  141.331647   1.272073   1.270500  0.053900    0.029174
  15   2   4  0  1.286723  0.388584    0.091540   -0.169664  298.348536   0.193770   0.375800  0.243100   -0.748785
   0   4   4  0  0.466797  1.071129  -25.640469   18.143836  144.715822  31.571421  30.987000  0.140400    4.162543
   1   4   4  0  0.473989  1.054876   -3.320823    3.847645  130.796801   5.108547   5.168000  0.024300   -2.446612
   2   4   4  0  0.494939  1.010225  -15.468677   10.504155  145.821153  18.793725  18.802400  0.031600   -0.274539
   3   4   4  0  0.528011  0.946950   -2.151284    1.871125  138.984188   2.865752   2.999600  0.139600   -0.958798
   4   4   4  0  0.571104  0.875498   -8.359546    6.022761  144.228566  10.355904  10.264800  0.032300    2.820563
   5   4   4  0  0.622138  0.803680    2.644408   -3.243257  309.192274   4.206099   4.279400  0.023100   -3.173203
   6   4   4  0  0.679326  0.736023  -11.133207    8.303562  143.283047  13.959815  14.099300  0.042400   -3.289743
   7   4   4  0  0.741246  0.674540    1.446581   -0.929114  327.288064   1.728055   1.685200  0.040700    1.052956
   8   4   4  0  0.806808  0.619726   -7.845032    5.226181  146.329353   9.474656   9.458800  0.036200    0.438018
   9   4   4  0  0.875194  0.571302   -0.615956    1.000660  121.614371   1.181054   1.234800  0.089400   -0.601191
  10   4   4  0  0.945792  0.528657   -2.411576    1.448948  149.001276   2.827783   2.847400  0.032100   -0.611131
  11   4   4  0  1.018143  0.491090   -0.079355   -0.104144  232.693377   0.131602   0.467400  0.344100   -0.975874
  12   4   4  0  1.091896  0.457919   -1.244850    1.067342  139.390006   1.648167   1.644600  0.055500    0.064274
  13   4   4  0  1.166788  0.428527    0.425706   -0.452044  313.281258   0.624120   0.784700  0.150400   -1.067689
  14   4   4  0  1.242611  0.402379   -1.103725    0.850718  142.376044   1.400661   1.381000  0.046900    0.419214
   0   6   4  0  0.599146  0.834521   -8.674222    4.729631  151.398514   9.930406  10.029700  0.039100   -2.539485
   1   6   4  0  0.604766  0.826765   -2.694437    1.344038  153.489074   3.026457   3.067000  0.026100   -1.553367
   2   6   4  0  0.621322  0.804736  -12.110594    9.078895  143.142370  15.213256  15.278600  0.029900   -2.185409
   3   6   4  0  0.647976  0.771634   -1.104525    0.118900  173.855855   1.116590   1.356900  0.056100   -4.283594
   4   6   4  0  0.683547  0.731479  -12.637705    9.941325  141.809991  16.161497  16.137300  0.044800    0.540122
   5   6   4  0  0.726727  0.688016    2.858619   -1.696255  329.315832   3.341009   3.269300  0.023300    3.077620
   6   6   4  0  0.776248  0.644124   -6.481061    3.890853  149.021839   7.597969   7.579200  0.035700    0.525738
   7   6   4  0  0.830976  0.601702    0.689703   -0.039362  356.733642   0.694360   0.953100  0.115800   -2.234367
   8   6   4  0  0.889952  0.561828   -2.965634    1.842882  148.142675   3.509455   3.584900  0.030800   -2.449520
   9   6   4  0  0.952387  0.524997   -0.717672    0.299609  157.340752   0.781680   0.893000  0.140700   -0.791189
  10   6   4  0  1.017644  0.491331   -2.758136    2.412505  138.824236   3.683103   3.754000  0.028400   -2.496362
  11   6   4  0  1.085215  0.460738    0.399573   -0.478935  309.838049   0.626920   0.629600  0.163200   -0.016424
  12   6   4  0  1.154692  0.433016   -1.737248    1.274511  143.734818   2.165649   2.144100  0.037300    0.577730
  13   6   4  0  1.225753  0.407913    0.450373   -0.218485  334.121052   0.503132   0.506800  0.300400   -0.012209
  14   6   4  0  1.298137  0.385167   -0.517755    0.254773  153.799420   0.579996   0.473700  0.144700    0.734598
   0   8   4  0  0.745978  0.670261   -6.529742    5.733392  138.715486   8.734071   8.465300  0.046300    5.804986
   1   8   4  0  0.750499  0.666223    2.149854   -2.166617  314.777493   3.067845   3.116800  0.034200   -1.431422
   2   8   4  0  0.763903  0.654533   -7.882131    5.718439  144.039340   9.787819   9.697800  0.027500    3.273431
   3   8   4  0  0.785735  0.636347    1.852794   -1.449836  321.956351   2.364668   2.275900  0.035100    2.528990
   4   8   4  0  0.815318  0.613258   -7.168723    4.464177  148.088252   8.488295   8.305000  0.034800    5.267102
   5   8   4  0  0.851845  0.586962   -1.153602    1.455459  128.400481   1.866693   1.829400  0.039500    0.944136
   6   8   4  0  0.894465  0.558993   -3.725078    2.844179  142.637472   4.710723   4.701500  0.022700    0.406295
   7   8   4  0  0.942353  0.530587   -0.243332   -0.054067  192.527228   0.250542   0.431600  0.229300   -0.789612
   8   8   4  0  0.994747  0.502640   -2.514105    2.311664  137.402153   3.432810   3.454400  0.028600   -0.754912
   9   8   4  0  1.050975  0.475749    1.151861   -1.126218  315.644911   1.619189   1.629200  0.051400   -0.194759
  10   8   4  0  1.110453  0.450267   -2.109250    1.478068  144.978942   2.588760   2.565900  0.034100    0.670383
  11   8   4  0  1.172688  0.426371    0.403320   -0.101058  345.933226   0.417915   0.446800  0.255600   -0.113008
  12   8   4  0  1.237264  0.404118   -0.923008    0.535286  149.888980   1.072452   0.996400  0.061100    1.244718
   0  10   4  0  0.900234  0.555411   -6.148953    4.849780  141.736580   7.871416   7.882900  0.048300   -0.237760
   1  10   4  0  0.903984  0.553107    0.430039    0.225873   27.710190   0.488235   0.365000  0.348000    0.354122
   2  10   4  0  0.915142  0.546363   -4.057453    2.936540  144.105249   5.034239   5.018200  0.023500    0.682495
   3  10   4  0  0.933444  0.535651    0.242956    0.195805   38.866301   0.313634   0.380000  0.340200   -0.195079
   4  10   4  0  0.958478  0.521660   -2.183120    1.619587  143.429463   2.732193   2.739800  0.033300   -0.228429
   5  10   4  0  0.989736  0.505185   -0.053875   -0.453660  263.227469   0.459185   0.630400  0.259600   -0.659533
   6  10   4  0  1.026648  0.487022   -2.883097    2.503816  139.027433   3.838090   3.795300  0.023100    1.852398
   7  10   4  0  1.068628  0.467890    0.551723   -0.562361  314.452902   0.791843   0.782000  0.116800    0.084274
   8  10   4  0  1.115105  0.448388   -2.362388    1.751323  143.449128   2.955797   2.904600  0.031500    1.625297
   9  10   4  0  1.165541  0.428985    0.440779   -0.049656  353.572425   0.445837   0.402100  0.351900    0.124288
  10  10   4  0  1.219444  0.410023   -0.804243    0.465062  149.960914   0.933779   0.852200  0.098300    0.829902
  11  10   4  0  1.276376  0.391734    0.005467    0.008652   57.713278   0.010287   0.198700  0.207500   -0.908015
   0  12   4  0  1.058673  0.472289   -2.258969    1.394156  148.318571   2.668128   2.590700  0.050000    1.548558
   1  12   4  0  1.061864  0.470870   -0.558099    0.411487  143.598632   0.696942   0.434100  0.263100    0.999021
   2  12   4  0  1.071379  0.466688   -2.071742    1.752549  139.771107   2.727470   2.679100  0.028400    1.703153
   3  12   4  0  1.087053  0.459959   -0.250363    0.064571  165.537959   0.259878   0.517400  0.370500   -0.695065
   4  12   4  0  1.108625  0.451009   -1.899233    1.873055  135.397608   2.681123   2.681500  0.035500   -0.010623
   5  12   4  0  1.135757  0.440235    0.763406   -0.610719  321.340465   0.982635   0.936900  0.105600    0.433098
   6  12   4  0  1.168064  0.428059   -1.546513    1.096089  144.672950   1.905249   1.867100  0.036700    1.039493
   7  12   4  0  1.205128  0.414894    0.358367   -0.121351  341.292718   0.380292   0.429600  0.319800   -0.154185
   8  12   4  0  1.246526  0.401115   -0.834368    0.523970  147.871832   0.990290   1.007400  0.068000   -0.251625
   9  12   4  0  1.291841  0.387044   -0.122818    0.077988  147.584943   0.146231   0.264600  0.248800   -0.475761
   0  14   4  0  1.219667  0.409948   -0.747524    0.774085  133.999923   1.081610   1.045300  0.109200    0.332508
   1  14   4  0  1.222438  0.409019    0.104067   -0.232465  294.116411   0.255999   0.320800  0.306900   -0.211147
   2  14   4  0  1.230712  0.406269   -1.094635    0.962793  138.666580   1.465264   1.459400  0.039100    0.149979
   3  14   4  0  1.244381  0.401806    0.211311   -0.237168  311.700231   0.319274   0.588700  0.129300   -2.083727
   4  14   4  0  1.263269  0.395799   -1.153677    0.874022  142.852535   1.454777   1.457900  0.041800   -0.074703
   5  14   4  0  1.287146  0.388456    0.091543    0.074092   38.985701   0.118372   0.358200  0.191300   -1.253675
   1   1   5  0  0.421833  1.185304    2.410523   19.576491   82.980301  19.825262  19.949700  0.037600   -3.309526
   2   1   5  0  0.445243  1.122982    6.105944   -8.144030  306.860539  10.230871  10.249600  0.028600   -0.654852
   3   1   5  0  0.481739  1.037906   -4.372246   24.624355  100.068379  25.137469  24.870600  0.108700    2.455095
   4   1   5  0  0.528617  0.945864   -0.973767    1.852536  117.728212   2.103580   2.105700  0.027100   -0.078238
   5   1   5  0  0.583380  0.857074   -1.915692   16.429280   96.650788  16.625221  16.516900  0.033000    3.282451
   6   1   5  0  0.644020  0.776374   -2.918081    3.161769  132.704740   4.324569   4.410600  0.029300   -2.936212
   7   1   5  0  0.709029  0.705190    1.423921    8.213988   80.165335   8.379150   8.506800  0.038000   -3.359220
   8   1   5  0  0.777313  0.643241    0.704232   -1.649869  293.114771   1.803060   1.846400  0.043300   -1.000931
   9   1   5  0  0.848081  0.589566    0.090901    6.143792   89.152340   6.175903   6.262700  0.030400   -2.855170
  10   1   5  0  0.920761  0.543029    0.972486   -1.027499  313.424353   1.421976   1.394400  0.060100    0.458843
  11   1   5  0  0.994933  0.502547   -0.705252    3.882530  100.295374   3.966254   3.938800  0.030000    0.915150
  12   1   5  0  1.070287  0.467164   -0.311404    0.561827  118.998278   0.645644   0.573700  0.278700    0.258140
  13   1   5  0  1.146591  0.436075   -0.025108    1.410706   91.019655   1.418148   1.472600  0.051700   -1.053224
  14   1   5  0  1.223666  0.408608   -0.216886    0.111846  152.720306   0.245275   0.423300  0.328100   -0.542594
   1   3   5  0  0.484121  1.032799   -4.911163   25.844781  100.759369  26.441869  26.186100  0.050600    5.054725
   2   3   5  0  0.504651  0.990785    2.460002   -1.863589  322.854032   3.101981   3.061300  0.023600    1.723789
   3   3   5  0  0.537125  0.930882    3.543288   12.184594   73.785533  12.754261  12.899200  0.027400   -5.289747
   4   3   5  0  0.579540  0.862753   -0.854917    0.338672  158.389207   0.924261   1.023100  0.048400   -2.042137
   5   3   5  0  0.629891  0.793788    1.545276   12.032647   82.681923  12.193538  12.287900  0.029100   -3.242682
   6   3   5  0  0.686434  0.728402   -1.223927    0.093184  175.646192   1.233749   1.293000  0.044200   -1.340513
   7   3   5  0  0.747765  0.668659   -2.434042   12.177170  101.303635  12.481590  12.570600  0.046900   -1.897863
   8   3   5  0  0.812802  0.615156    0.637178   -0.993976  302.661482   1.186712   1.257900  0.060500   -1.176667
   9   3   5  0  0.880723  0.567716   -0.693797    5.416217   97.299625   5.488412   5.458300  0.025800    1.167135
  10   3   5  0  0.950911  0.525812    0.349450   -0.278994  321.396758   0.449449   0.470100  0.344100   -0.060015
  11   3   5  0  1.022899  0.488807    0.752640    1.783673   67.122152   1.945869   1.892600  0.046300    1.150520
  12   3   5  0  1.096333  0.456066   -0.268086    0.091243  161.204103   0.284637   0.325100  0.306900   -0.131845
  13   3   5  0  1.170940  0.427007    0.072239    1.566752   87.360097   1.576441   1.514600  0.047700    1.296464
  14   3   5  0  1.246511  0.401120   -0.045975   -0.136315  251.362109   0.144595   0.391600  0.319800   -0.772373
   1   5   5  0  0.589266  0.848513   -0.830907   15.205371   93.127854  15.305973  15.290800  0.030600    0.495841
   2   5   5  0  0.606245  0.824749   -4.348319    4.731195  132.585318   6.458770   6.550300  0.108100   -0.846713
   3   5   5  0  0.633533  0.789224    0.545591   14.364643   87.824863  14.448551  14.433600  0.029800    0.501714
   4   5   5  0  0.669872  0.746412    0.646297   -2.093858  287.153534   2.202546   2.319800  0.032800   -3.574832
   5   5   5  0  0.713880  0.700398   -0.329856   11.234262   91.681815  11.296609  11.374100  0.029100   -2.662918
   6   5   5  0  0.764234  0.654250    2.400649   -3.118184  307.592209   3.955384   3.924700  0.021300    1.440583
   7   5   5  0  0.819765  0.609931   -0.674110    6.805388   95.657002   6.873684   6.879300  0.032100   -0.174949
   8   5   5  0  0.879493  0.568510   -0.595257    0.858403  124.739251   1.049944   1.108600  0.072100   -0.813537
   9   5   5  0  0.942621  0.530436    0.204553    3.836684   86.948164   3.861792   3.739700  0.029500    4.138698
  10   5   5  0  1.008510  0.495781   -0.867131    0.406465  154.885305   0.962569   0.790100  0.192700    0.895011
  11   5   5  0  1.076654  0.464402    0.171015    2.462399   86.027165   2.480960   2.523800  0.037700   -1.136352
  12   5   5  0  1.146650  0.436053    0.292868   -0.777134  290.649258   0.834737   0.916700  0.132900   -0.616730
  13   5   5  0  1.218180  0.410448   -0.136638    1.296024   96.018377   1.309875   1.381900  0.049600   -1.452113
  14   5   5  0  1.290988  0.387300    0.203740   -0.218843  312.953141   0.300532   0.271200  0.254200    0.115388
   1   7   5  0  0.718698  0.695703    1.863707    8.926504   78.206991   9.165643   9.242800  0.033800   -2.282752
   2   7   5  0  0.732683  0.682423    0.137748   -2.003276  273.933546   2.018281   2.090500  0.036400   -1.984045
   3   7   5  0  0.755418  0.661885   -2.166149   11.845666  100.362854  12.103707  12.042800  0.029400    2.071681
   4   7   5  0  0.786142  0.636017    0.373773   -0.395737  313.365071   0.547132   0.754000  0.111100   -1.861995
   5   7   5  0  0.823964  0.606823   -1.009718    7.744252   97.428482   7.849759   7.690200  0.034200    4.665482
   6   7   5  0  0.867954  0.576067   -0.200535    0.546460  110.151623   0.585072   0.598700  0.133500   -0.102084
   7   7   5  0  0.917227  0.545121    1.331207    3.401654   68.627550   3.671547   3.574000  0.028800    3.387050
   8   7   5  0  0.970978  0.514944   -0.328179   -0.599483  241.302051   0.686931   0.618500  0.172300    0.397159
   9   7   5  0  1.028506  0.486142    0.267793    3.180080   85.186512   3.207664   3.251200  0.030400   -1.432113
  10   7   5  0  1.089212  0.459047    0.182128   -0.823865  282.465640   0.848073   0.620900  0.220700    1.029328
  11   7   5  0  1.152595  0.433804   -0.519007    2.214119  103.192411   2.285771   2.245900  0.035600    1.119967
  12   7   5  0  1.218236  0.410430    0.134948   -0.123585  317.516523   0.183923   0.364700  0.336200   -0.537707
  13   7   5  0  1.285789  0.388866    0.002310    0.692118   89.808746   0.695663   0.633100  0.078200    0.800042
   1   9   5  0  0.861539  0.580357   -0.281515    7.583915   92.125846   7.627969   7.616700  0.035000    0.321962
   2   9   5  0  0.873240  0.572581    1.554731   -1.439583  317.202261   2.129707   2.118600  0.041300    0.268924
   3   9   5  0  0.892400  0.560287    0.300293    4.629030   86.288324   4.662494   4.691400  0.020300   -1.423927
   4   9   5  0  0.918554  0.544334   -0.380752    0.195342  152.840269   0.430127   0.388500  0.340200    0.122361
   5   9   5  0  0.951125  0.525693    0.530380    3.855485   82.167261   3.911708   3.787300  0.030200    4.119471
   6   9   5  0  0.989478  0.505317   -0.941254    0.127312  172.297038   0.954685   0.924200  0.098800    0.308556
   7   9   5  0  1.032970  0.484041   -0.041771    3.852570   90.621199   3.872509   3.824700  0.022900    2.087734
   8   9   5  0  1.080982  0.462543    0.381388   -0.949644  291.880963   1.028603   0.998700  0.080000    0.373790
   9   9   5  0  1.132938  0.441331   -0.244207    2.154186   96.467670   2.179077   2.247600  0.037300   -1.837090
  10   9   5  0  1.188321  0.420762    0.335998   -0.380300  311.460821   0.510064   0.642600  0.142200   -0.932041
  11   9   5  0  1.246674  0.401067    0.109173    0.785387   82.086327   0.796996   0.602600  0.132700    1.464928
   1  11   5  0  1.012127  0.494009   -0.337103    3.769946   95.109710   3.804354   3.799800  0.026000    0.175153
   2  11   5  0  1.022106  0.489186   -0.453897    0.795716  119.701557   0.920758   0.844700  0.135200    0.562562
   3  11   5  0  1.038524  0.481453    0.777246    2.818975   74.585436   2.939126   2.926200  0.028600    0.451943
   4  11   5  0  1.061082  0.471217   -0.087033   -0.489522  259.918653   0.499742   0.416000  0.336200    0.249085
   5  11   5  0  1.089399  0.458968    0.305516    2.639870   83.398444   2.671088   2.656200  0.043000    0.346227
   6  11   5  0  1.123040  0.445220    0.335715   -0.926013  289.927537   0.990029   0.877200  0.099800    1.130552
   7  11   5  0  1.161542  0.430462   -0.350722    2.030186   99.801314   2.070799   2.066800  0.033200    0.120453
   8  11   5  0  1.204439  0.415131    0.051257   -0.060588  310.230985   0.079767   0.310000  0.340200   -0.676759
   9  11   5  0  1.251279  0.399591    0.078553    0.973015   85.384420   0.981175   0.935400  0.065100    0.703153
   1  13   5  0  1.167469  0.428277    0.371502    1.501962   76.107061   1.555141   1.524500  0.047400    0.646440
   2  13   5  0  1.176131  0.425123   -0.296603   -0.122335  202.413837   0.322483   0.474100  0.321100   -0.472179
   3  13   5  0  1.190426  0.420018   -0.055482    2.034824   91.561841   2.045996   2.052300  0.033400   -0.188744
   4  13   5  0  1.210156  0.413170    0.125125   -0.293021  293.123272   0.320249   0.508400  0.314500   -0.598255
   5  13   5  0  1.235061  0.404838   -0.073087    1.459873   92.866068   1.469181   1.464700  0.041600    0.107708
   6  13   5  0  1.264833  0.395309    0.147812   -0.135149  317.562394   0.201308   0.369000  0.311300   -0.538682
   7  13   5  0  1.299140  0.384870    0.218517    0.674121   72.039871   0.712279   0.737900  0.056700   -0.451870
   0   0   6  0  0.486145  1.028500   20.483345    4.136113   11.415982  21.003687  20.974700  0.074600    0.388567
   2   0   6  0  0.513227  0.974228   14.355296   13.390741   43.008988  19.731708  19.560700  0.049000    3.489952
   4   0   6  0  0.587024  0.851755    8.652807   15.353527   60.595640  17.714075  17.548000  0.046400    3.579195
   6   0   6  0  0.692764  0.721747    9.125783    4.764237   27.567413  10.347229  10.131200  0.055200    3.913563
   8   0   6  0  0.818154  0.611132    6.874335    2.199342   17.741306   7.254518   7.307900  0.045800   -1.165539
  10   0   6  0  0.955490  0.523292    2.706157    3.544655   52.640174   4.482399   4.544100  0.070400   -0.876428
  12   0   6  0  1.100307  0.454419    1.123513    1.645673   55.678356   2.002812   2.027800  0.060100   -0.415777
  14   0   6  0  1.250008  0.399998    0.879239    0.197866   12.682678   0.905840   0.705000  0.297000    0.676228
   0   2   6  0  0.514346  0.972108   14.036618   14.833503   46.581100  20.526524  20.568700  0.046100   -0.914877
   1   2   6  0  0.520882  0.959910    3.039403   -5.512054  298.872789   6.326705   6.407600  0.028500   -2.838434
   2   2   6  0  0.540016  0.925899   13.786039   10.849291   38.201918  17.632908  17.656800  0.032600   -0.732897
   3   2   6  0  0.570481  0.876454    1.991028   -2.968230  303.852900   3.592442   3.521800  0.028100    2.513958
   4   2   6  0  0.610583  0.818889   11.942895    7.094832   30.712979  13.962418  13.789300  0.051900    3.335613
   5   2   6  0  0.658565  0.759226   -2.478222    4.002385  121.765224   4.731599   4.751300  0.022400   -0.879512
   6   2   6  0  0.712837  0.701423    8.229106    6.894859   39.958378  10.790724  10.613800  0.029400    6.017836
   7   2   6  0  0.772074  0.647607   -1.072378    0.279142  165.409569   1.113783   1.056400  0.079300    0.723615
   8   2   6  0  0.835219  0.598645    4.784071    4.824865   45.243242   6.829370   6.935800  0.036200   -2.940054
   9   2   6  0  0.901453  0.554660    0.878421   -1.951733  294.231193   2.151251   2.286300  0.136500   -0.989368
  10   2   6  0  0.970142  0.515388    2.812911    1.944419   34.654096   3.437033   3.509900  0.031400   -2.320590
  11   2   6  0  1.040801  0.480399    0.108072    0.117220   47.325142   0.160252   0.471100  0.336200   -0.924591
  12   2   6  0  1.113054  0.449214    1.613322    0.896637   29.064027   1.855187   1.809200  0.046300    0.993235
  13   2   6  0  1.186611  0.421368   -0.380411    0.445597  130.487722   0.588890   0.695100  0.246400   -0.431048
  14   2   6  0  1.261243  0.396434    0.735416    0.635107   40.813963   0.976669   1.041100  0.076800   -0.838940
   0   4   6  0  0.590930  0.846124    9.123647   14.080656   57.058535  16.863982  16.887100  0.044000   -0.525419
   1   4   6  0  0.596627  0.838044   -0.922536    2.868938  107.825719   3.029034   3.089500  0.023400   -2.584004
   2   4   6  0  0.613403  0.815125   11.902709    8.197640   34.555983  14.526483  14.495900  0.029100    1.050959
   3   4   6  0  0.640386  0.780779   -1.166009    1.686082  124.665776   2.060476   2.151200  0.035400   -2.562816
   4   4   6  0  0.676356  0.739255   11.856614    4.411853   20.410263  12.715568  12.741500  0.032300   -0.802844
   5   4   6  0  0.719968  0.694475    0.093415   -2.547526  272.100034   2.562282   2.603000  0.027800   -1.464682
   6   4   6  0  0.769924  0.649415    6.216067    6.687645   47.092995   9.177110   9.363700  0.030500   -6.117717
   7   4   6  0  0.825072  0.606008    0.221514   -0.900191  283.824394   0.931788   0.988800  0.103900   -0.548720
   8   4   6  0  0.884442  0.565328    3.208425    4.356398   53.628888   5.438061   5.406100  0.026100    1.224567
   9   4   6  0  0.947240  0.527849   -0.478175    0.878312  118.564971   1.005158   1.089000  0.076900   -1.090275
  10   4   6  0  1.012829  0.493667    2.807799    1.016217   19.896535   3.001318   2.983200  0.033200    0.545722
  11   4   6  0  1.080700  0.462663   -0.407406   -0.033810  184.743994   0.410898   0.391100  0.336200    0.058888
  12   4   6  0  1.150450  0.434612    1.598863    0.780868   26.030406   1.788464   1.806800  0.042100   -0.435545
  13   4   6  0  1.221758  0.409246   -0.014080   -0.406284  268.015164   0.408608   0.558600  0.149900   -1.000613
  14   4   6  0  1.294365  0.386290    0.495642    0.714927   55.267310   0.874383   0.792600  0.057600    1.419844
   0   6   6  0  0.700196  0.714086   10.344318    3.340745   17.898100  10.926014  10.840500  0.044900    1.904546
   1   6   6  0  0.705011  0.709209   -1.684507    1.360806  141.067465   2.176573   2.076200  0.042200    2.378499
   2   6   6  0  0.719263  0.695156    8.597344    6.906551   38.776147  11.084334  10.830100  0.045300    5.612226
   3   6   6  0  0.742409  0.673484   -1.302694    0.279300  167.898889   1.339116   1.832600  0.081000   -6.092398
   4   6   6  0  0.773650  0.646287    5.952816    7.934726   53.121915   9.970225   9.922900  0.036100    1.310929
   5   6   6  0  0.812053  0.615723    0.918615   -1.643170  299.207375   1.892147   1.863600  0.038800    0.735741
   6   6   6  0  0.856656  0.583665    4.900337    2.968129   31.203242   5.758458   5.863000  0.081200   -1.287466
   7   6   6  0  0.906543  0.551546   -0.078692   -0.055895  215.386023   0.097017   0.370300  0.319800   -0.854544
   8   6   6  0  0.960892  0.520350    3.826926    1.189776   17.270258   4.028115   3.978000  0.033500    1.495957
   9   6   6  0  1.018989  0.490682   -0.961364    0.383533  158.250640   1.040341   1.279100  0.086300   -2.766621
  10   6   6  0  1.080231  0.462864    1.945889    1.892547   44.203832   2.728335   2.725700  0.033500    0.078659
  11   6   6  0  1.144111  0.437021   -0.203199   -0.423355  244.360223   0.471998   0.363800  0.363200    0.297902
  12   6   6  0  1.210212  0.413151    0.780529    1.061395   53.669962   1.324233   1.438100  0.050300   -2.263750
  13   6   6  0  1.278189  0.391178    0.088250   -0.222207  291.660489   0.240313   0.351000  0.259400   -0.426703
   0   8   6  0  0.829326  0.602899    7.112981    3.986379   29.267893   8.195598   8.208700  0.047800   -0.274111
   1   8   6  0  0.833395  0.599955    0.617237   -1.923923  287.787376   2.030848   2.120100  0.041300   -2.161057
   2   8   6  0  0.845486  0.591376    5.356930    4.288371   38.678240   6.897093   6.989000  0.032100   -2.863137
   3   8   6  0  0.865262  0.577860    0.433644   -1.341209  287.917210   1.416783   1.415800  0.059100    0.016632
   4   8   6  0  0.892211  0.560405    3.734078    3.433318   42.597148   5.098529   5.004400  0.024300    3.873603
   5   8   6  0  0.925709  0.540126   -0.880108    1.347213  123.155785   1.617449   1.654000  0.050600   -0.722356
   6   8   6  0  0.965073  0.518096    3.799281    1.939211   27.040462   4.287394   4.097700  0.025100    7.557533
   7   8   6  0  1.009617  0.495237   -0.802958    0.062127  175.575658   0.809479   0.733000  0.140200    0.545499
   8   8   6  0  1.058688  0.472283    2.597836    1.671372   32.756044   3.104856   3.192900  0.027400   -3.213271
   9   8   6  0  1.111686  0.449767    0.017789   -1.018611  271.000489   1.023979   1.046800  0.080000   -0.285267
  10   8   6  0  1.168078  0.428054    1.040985    1.180539   48.594532   1.582004   1.651700  0.046100   -1.511837
  11   8   6  0  1.227394  0.407367   -0.002732   -0.110755  268.586944   0.111356   0.494000  0.308200   -1.241546
  12   8   6  0  1.289232  0.387828    0.639207    0.373981   30.330648   0.744361   0.519600  0.124500    1.805310
   0  10   6  0  0.970422  0.515240    2.780133    3.748099   53.434017   4.690502   4.691900  0.033300   -0.041975
   1  10   6  0  0.973902  0.513399    0.347452    0.121365   19.254377   0.369922   0.558100  0.300100   -0.627051
   2  10   6  0  0.984268  0.507992    3.327406    1.992370   30.912144   3.898138   3.912600  0.025300   -0.571616
   3  10   6  0  1.001307  0.499347   -0.044570    0.172905  104.454699   0.179470   0.504300  0.332100   -0.978108
   4  10   6  0  1.024685  0.487955    3.412987    0.823288   13.561919   3.528845   3.530600  0.029100   -0.060324
   5  10   6  0  1.053981  0.474392   -0.704609   -0.284570  201.992290   0.763792   0.701500  0.179000    0.348002
   6  10   6  0  1.088716  0.459256    2.056475    1.844718   41.893031   2.776756   2.793700  0.032700   -0.518156
   7  10   6  0  1.128390  0.443109   -0.209657   -0.496249  247.096743   0.541476   0.547900  0.222300   -0.028897
   8  10   6  0  1.172501  0.426439    1.021382    1.365718   53.208223   1.714131   1.695000  0.040400    0.473539
   9  10   6  0  1.220567  0.409646    0.010031   -0.061999  279.190275   0.063127   0.401600  0.328100   -1.031617
  10  10   6  0  1.272141  0.393038    0.893702    0.248881   15.561653   0.932456   0.887000  0.060100    0.756341
   0  12   6  0  1.118967  0.446841    1.758096    0.822665   25.076283   1.950983   2.052800  0.061200   -1.663681
   1  12   6  0  1.121986  0.445638   -0.376507    0.432392  131.047857   0.576275   0.792700  0.129600   -1.669946
   2  12   6  0  1.130996  0.442088    1.921790    1.110404   30.019183   2.230878   2.243900  0.037300   -0.349126
   3  12   6  0  1.145855  0.436355   -0.411370    0.125555  163.027134   0.432304   0.633100  0.186400   -1.077230
   4  12   6  0  1.166339  0.428692    1.667089    1.286062   37.648089   2.116276   2.127400  0.032200   -0.345480
   5  12   6  0  1.192159  0.419407    0.086252   -0.570174  278.602095   0.579611   0.648700  0.170200   -0.405926
   6  12   6  0  1.222977  0.408839    1.017677    0.747577   36.300698   1.269211   1.417500  0.048300   -3.070172
   7  12   6  0  1.258425  0.397322   -0.041248   -0.102316  248.043764   0.110882   0.303800  0.259400   -0.743707
   8  12   6  0  1.298124  0.385171    0.793874    0.269036   18.721031   0.842511   0.794400  0.047900    1.004399
   0  14   6  0  1.272354  0.392972    1.223796    0.356354   16.234889   1.281145   1.227000  0.062000    0.873309
   1  14   6  0  1.275011  0.392154   -0.068145   -0.196100  250.837613   0.208665   0.444700  0.282400   -0.835817
   2  14   6  0  1.282946  0.389728    0.926712    0.590532   32.506681   1.104496   1.033700  0.044200    1.601721
   3  14   6  0  1.296064  0.385783   -0.057046   -0.205162  254.461357   0.214035   0.383700  0.148800   -1.140222
   1   1   7  0  0.579224  0.863224   16.609337   -6.220050  339.469519  17.826561  17.657700  0.033400    5.055718
   2   1   7  0  0.596489  0.838238    1.448931   -4.705871  287.113527   4.949077   4.931800  0.023900    0.722874
   3   1   7  0  0.624204  0.801020   12.572128   -0.869942  356.041666  12.666670  12.657700  0.035200    0.254838
   4   1   7  0  0.661055  0.756366   -0.058424    1.264625   92.645127   1.272451   1.397800  0.054500   -2.299984
   5   1   7  0  0.705614  0.708603    9.682936   -2.014539  348.247245   9.940883   9.845900  0.042500    2.234903
   6   1   7  0  0.756518  0.660923   -1.061577    2.498866  113.016920   2.728901   2.585100  0.028000    5.135756
   7   1   7  0  0.812576  0.615327    7.480363   -3.444505  335.275204   8.277454   8.268900  0.029500    0.289953
   8   1   7  0  0.872796  0.572871   -0.114068   -1.032262  263.694220   1.043859   1.974300  0.136900   -6.796501
   9   1   7  0  0.936376  0.533974    4.347117   -1.117810  345.579481   4.511499   4.546900  0.024300   -1.456844
  10   1   7  0  1.002675  0.498666    0.343501   -0.755978  294.436085   0.834608   0.747000  0.173200    0.505817
  11   1   7  0  1.071191  0.466770    1.969001   -0.085961  357.500231   1.980961   2.038100  0.046700   -1.223531
  12   1   7  0  1.141522  0.438012   -0.057653    0.470518   96.985714   0.476463   0.569800  0.314000   -0.297252
  13   1   7  0  1.213354  0.412081    1.045510   -0.435632  337.380007   1.138432   1.084900  0.063200    0.847025
  14   1   7  0  1.286436  0.388671   -0.143925    0.140996  135.588939   0.202511   0.275000  0.220100   -0.329345
   1   3   7  0  0.626044  0.798666   12.556323   -0.343179  358.434430  12.625281  12.738100  0.035600   -3.169072
   2   3   7  0  0.642051  0.778754    1.056096   -1.121096  313.289940   1.548074   1.468000  0.044100    1.815726
   3   3   7  0  0.667878  0.748640   12.832073   -7.016313  331.331072  14.699834  14.763600  0.039700   -1.606195
   4   3   7  0  0.702442  0.711802   -0.558632    0.702497  128.492042   0.902128   0.942800  0.096900   -0.419729
   5   3   7  0  0.744527  0.671567    9.942121   -3.796876  339.098243  10.696917  10.541800  0.033600    4.616582
   6   3   7  0  0.792937  0.630567   -1.016793    0.606039  149.203778   1.189759   1.182100  0.048300    0.158569
   7   3   7  0  0.846588  0.590606    5.571910    0.595421    6.099553   5.632305   5.639600  0.026300   -0.277388
   8   3   7  0  0.904546  0.552763   -0.003461   -0.464263  269.572925   0.466651   0.355000  0.324000    0.344602
   9   3   7  0  0.966038  0.517578    3.226714   -0.902528  344.373429   3.367702   3.458700  0.029700   -3.063913
  10   3   7  0  1.030431  0.485234    0.072289   -0.014662  348.534649   0.074138   0.490800  0.333500   -1.249361
  11   3   7  0  1.097215  0.455699    2.215947   -1.438114  327.017074   2.655220   2.675400  0.032700   -0.617133
  12   3   7  0  1.165977  0.428825   -0.242308    0.249682  134.141308   0.349709   0.376200  0.288900   -0.091696
  13   3   7  0  1.236390  0.404403    1.127308   -0.223790  348.771788   1.155186   1.082300  0.066800    1.091114
   1   5   7  0  0.710487  0.703742    9.957636   -3.353548  341.387425  10.560939  10.612500  0.029800   -1.730233
   2   5   7  0  0.724632  0.690006   -1.557111    3.750542  112.546738   4.081709   4.055000  0.021600    1.236521
   3   5   7  0  0.747611  0.668797    9.990634   -2.532367  345.776566  10.359317  10.216800  0.030500    4.672693
   4   5   7  0  0.778644  0.642142   -0.433160   -0.937132  245.192744   1.037679   1.190900  0.076700   -1.997661
   5   5   7  0  0.816812  0.612136    7.202461   -1.584178  347.595340   7.412356   7.562400  0.033700   -4.452348
   6   5   7  0  0.861168  0.580607    0.490828   -1.919371  284.344452   1.991272   1.972500  0.038600    0.486327
   7   5   7  0  0.910808  0.548963    4.245185   -1.488403  340.678845   4.521566   4.567800  0.026700   -1.731612
   8   5   7  0  0.964917  0.518179   -0.323914    1.065879  106.903717   1.119710   1.112800  0.075300    0.091763
   9   5   7  0  1.022786  0.488861    2.958192   -1.220420  337.581106   3.216424   3.129500  0.030400    2.859354
  10   5   7  0  1.083813  0.461334   -0.664208    0.717172  132.804280   0.982502   0.913900  0.100000    0.686020
  11   5   7  0  1.147493  0.435732    1.805875   -0.428458  346.652928   1.865503   1.846900  0.043300    0.429631
  12   5   7  0  1.213410  0.412062   -0.137277   -0.384560  250.354860   0.410417   0.403200  0.340200    0.021213
  13   5   7  0  1.281218  0.390254    0.750194   -0.137512  349.612844   0.766595   0.742700  0.071800    0.332799
   1   7   7  0  0.821026  0.608994    7.967012   -3.751316  334.786311   8.851057   8.781300  0.032900    2.120284
   2   7   7  0  0.833296  0.600027   -0.722516   -1.017272  234.615787   1.254131   1.704100  0.102700   -4.381391
   3   7   7  0  0.853355  0.585923    5.560346   -0.080385  359.171737   5.589380   5.641800  0.027700   -1.892412
   4   7   7  0  0.880669  0.567750   -0.030533    0.081432  110.553524   0.087413   0.639600  0.196400   -2.811544
   5   7   7  0  0.914589  0.546693    4.289417   -1.063218  346.078668   4.441834   4.436300  0.024000    0.230582
   6   7   7  0  0.954412  0.523883   -0.158260    0.886161  100.125746   0.904788   0.972000  0.078300   -0.858392
   7   7   7  0  0.999432  0.500284    3.832067   -2.334436  328.650868   4.510088   4.603700  0.029800   -3.141340
   8   7   7  0  1.048979  0.476654   -0.665812    0.101767  171.309804   0.676991   0.551900  0.269000    0.465022
   9   7   7  0  1.102444  0.453538    2.338666   -0.608954  345.405121   2.429012   2.442900  0.031200   -0.445115
  10   7   7  0  1.159285  0.431300   -0.285206   -0.293887  225.858815   0.411621   0.387700  0.298000    0.080273
  11   7   7  0  1.219029  0.410162    0.943202    0.065519    3.973666   0.950312   0.975600  0.070200   -0.360227
  12   7   7  0  1.281271  0.390237   -0.015275    0.085341  100.147912   0.087141   0.332500  0.254200   -0.965219
   1   9   7  0  0.948581  0.527103    4.461188   -0.757855  350.358787   4.548255   4.560400  0.024200   -0.501873
   2   9   7  0  0.959221  0.521256    0.606906   -1.009648  301.010351   1.184045   1.244500  0.064200   -0.941670
   3   9   7  0  0.976697  0.511930    3.605638   -2.121485  329.528293   4.204863   4.307500  0.023900   -4.294416
   4   9   7  0  1.000650  0.499675   -0.372688    0.578902  122.772787   0.692017   0.582200  0.294200    0.373273
   5   9   7  0  1.030629  0.485141    3.158043   -1.586113  333.332112   3.552059   3.490000  0.026200    2.368649
   6   9   7  0  1.066126  0.468988   -0.862090    0.657829  142.654083   1.089956   1.050800  0.086900    0.450581
   7   9   7  0  1.106610  0.451830    2.318331   -0.239647  354.098273   2.342610   2.305200  0.038000    0.984463
   8   9   7  0  1.151555  0.434195   -0.184102   -0.366968  243.357790   0.412660   0.673100  0.237500   -1.096588
   9   9   7  0  1.200460  0.416507    1.176684   -0.280153  346.607929   1.215763   1.273000  0.047800   -1.197422
  10   9   7  0  1.252862  0.399086    0.027499   -0.043607  302.235811   0.051818   0.303600  0.319800   -0.787312
   1  11   7  0  1.087180  0.459906    2.091693   -0.748826  340.302636   2.233061   2.264000  0.040300   -0.767723
   2  11   7  0  1.096475  0.456007   -0.123508    0.785953   98.930669   0.799668   0.874800  0.091400   -0.822009
   3  11   7  0  1.111796  0.449723    2.535399   -1.231428  334.094438   2.833050   2.835900  0.030900   -0.092237
   4  11   7  0  1.132896  0.441347   -0.353678   -0.042926  186.920089   0.358096   0.576400  0.290500   -0.751476
   5  11   7  0  1.159461  0.431235    1.907662   -0.631510  341.683466   2.019754   2.096500  0.032700   -2.346966
   6  11   7  0  1.191125  0.419771   -0.178890   -0.404250  246.129541   0.444325   0.530300  0.215400   -0.399143
   7  11   7  0  1.227493  0.407334    0.965550   -0.247769  345.607939   1.001934   1.022100  0.081900   -0.246229
   8  11   7  0  1.268161  0.394272   -0.072466    0.219046  108.305592   0.231902   0.355700  0.293500   -0.421798
   1  13   7  0  1.233103  0.405481    1.305423   -0.838326  327.291951   1.559363   1.581800  0.038500   -0.582788
   2  13   7  0  1.241306  0.402801   -0.322736    0.074883  166.937116   0.333004   0.576900  0.250700   -0.972858
   3  13   7  0  1.254860  0.398451    1.115521   -0.199446  349.863111   1.139008   1.147100  0.053100   -0.152391
   4  13   7  0  1.273592  0.392590   -0.060760   -0.058652  223.988913   0.084882   0.324200  0.284200   -0.842076
   5  13   7  0  1.297279  0.385422    0.797706   -0.280866  340.603267   0.850034   0.774200  0.049200    1.541352
   0   0   8  0  0.648193  0.771375    5.738693  -16.899112  288.756742  17.938236  17.779700  0.078400    2.022141
   2   0   8  0  0.668745  0.747670    4.780021  -10.702233  294.067340  11.781167  11.632800  0.044200    3.356710
   4   0   8  0  0.726921  0.687833    3.062032   -5.895947  297.444892   6.677654   6.568700  0.037100    2.936755
   6   0   8  0  0.814702  0.613722    2.391774   -7.894524  286.855033   8.291090   8.452900  0.047700   -3.392245
   8   0   8  0  0.923685  0.541310    2.070209   -5.692966  289.983458   6.088686   6.055700  0.033300    0.990583
  10   0   8  0  1.047272  0.477431    1.023938   -1.704697  300.991423   1.998753   1.921000  0.065400    1.188878
  12   0   8  0  1.180886  0.423411    0.275334   -0.941699  286.297854   0.986145   0.858800  0.150700    0.845023
   0   2   8  0  0.669604  0.746710    4.858192  -10.021049  295.864049  11.193563  11.162500  0.041600    0.746717
   1   2   8  0  0.674638  0.741139    0.518472   -3.049466  279.649195   3.109054   3.087400  0.028400    0.762464
   2   2   8  0  0.689518  0.725145    4.151860  -10.852603  290.935259  11.679132  11.729600  0.030200   -1.671117
   3   2   8  0  0.713629  0.700645    0.599749   -1.668361  289.772706   1.781958   1.804700  0.031600   -0.719687
   4   2   8  0  0.746076  0.670173    3.302659   -9.889615  288.466854  10.479855  10.505900  0.041300   -0.630627
   5   2   8  0  0.785828  0.636272   -0.399275    2.778012   98.178925   2.820919   2.806000  0.031200    0.478159
   6   2   8  0  0.831838  0.601079    2.668304   -6.094830  293.643705   6.687373   6.612900  0.040300    1.847960
   7   2   8  0  0.883128  0.566169   -0.543914    0.574230  133.446939   0.794985   0.616800  0.240700    0.740278
   8   2   8  0  0.938834  0.532576    1.552030   -3.488018  293.987177   3.837264   3.865500  0.021700   -1.301184
   9   2   8  0  0.998216  0.500894    0.143840   -1.111664  277.372615   1.126666   1.211500  0.078500   -1.080687
  10   2   8  0  1.060657  0.471406    0.720671   -2.458274  286.339102   2.574841   2.615000  0.036400   -1.103276
  11   2   8  0  1.125648  0.444188    0.176804    0.163352   42.735249   0.241946   0.412400  0.366800   -0.464705
  12   2   8  0  1.192773  0.419191    0.454102   -1.391895  288.068777   1.471588   1.443300  0.050100    0.564631
  13   2   8  0  1.261691  0.396294   -0.107879    0.401793  105.029072   0.418152   0.366900  0.249000    0.205832
   0   4   8  0  0.730079  0.684857    2.733213   -6.759420  292.016247   7.328411   7.399100  0.039600   -1.785080
   1   4   8  0  0.734698  0.680551    0.253681    1.708892   81.556233   1.736458   1.846700  0.039200   -2.812297
   2   4   8  0  0.748385  0.668105    3.375973   -9.452147  289.654930  10.088301  10.122500  0.032300   -1.058800
   3   4   8  0  0.770657  0.648797   -0.118922    1.400611   94.853166   1.412843   1.522700  0.047500   -2.312787
   4   4   8  0  0.800797  0.624378    3.543438   -9.358845  290.737623  10.058397   9.963000  0.032500    2.935285
   5   4   8  0  0.837957  0.596690   -0.450561   -1.010556  245.970070   1.112110   1.247100  0.058000   -2.327411
   6   4   8  0  0.881249  0.567376    2.003796   -4.368939  294.638367   4.831133   4.808500  0.023000    0.984048
   7   4   8  0  0.929818  0.537740    0.096665   -0.213851  294.323966   0.235884   0.526500  0.209600   -1.386525
   8   4   8  0  0.982881  0.508709    0.780422   -2.593223  286.749007   2.721967   2.788800  0.030000   -2.227768
   9   4   8  0  1.039750  0.480885    0.079983    0.883989   84.829956   0.892142   0.965200  0.118300   -0.617566
  10   4   8  0  1.099836  0.454613    0.712084   -2.549719  285.603951   2.660833   2.648000  0.034500    0.371969
  11   4   8  0  1.162639  0.430056   -0.202101    0.266409  127.184306   0.336104   0.357000  0.355700   -0.058746
  12   4   8  0  1.227743  0.407251    0.544798   -1.224622  293.982864   1.347195   1.290300  0.050100    1.135623
  13   4   8  0  1.294801  0.386160   -0.068404   -0.122401  240.801412   0.140936   0.346700  0.248800   -0.827027
   0   6   8  0  0.821031  0.608990    2.340048   -9.215676  284.247455   9.556778   9.626400  0.047400   -1.468820
   1   6   8  0  0.825141  0.605957   -0.687428    1.197795  119.852000   1.388106   1.340400  0.065300    0.730571
   2   6   8  0  0.837351  0.597121    2.533709   -6.380992  291.656609   6.900748   6.960700  0.033900   -1.768484
   3   6   8  0  0.857314  0.583217   -0.630019    0.720998  131.147495   0.962376   1.032500  0.073700   -0.951481
   4   6   8  0  0.884506  0.565287    1.978969   -3.739296  297.889392   4.252326   4.257000  0.024100   -0.193938
   5   6   8  0  0.918285  0.544493    0.414860   -0.695151  300.828376   0.813675   0.470800  0.340200    1.007863
   6   6   8  0  0.957954  0.521946    1.036991   -4.383317  283.310132   4.527357   4.602200  0.024000   -3.118442
   7   6   8  0  1.002815  0.498597    0.165192    0.421681   68.607434   0.455200   0.515800  0.199200   -0.304217
   8   6   8  0  1.052203  0.475193    0.942768   -3.427256  285.380483   3.572747   3.645600  0.028200   -2.583444
   9   6   8  0  1.105512  0.452279   -0.399898    0.747623  118.142026   0.852193   0.654900  0.186000    1.060717
  10   6   8  0  1.162203  0.430217    0.706791   -1.251349  299.458785   1.444513   1.430300  0.053200    0.267157
  11   6   8  0  1.221805  0.409231   -0.145135   -0.000121  180.047736   0.145878   0.434300  0.332200   -0.868218
  12   6   8  0  1.283912  0.389435    0.192624   -0.582730  288.291546   0.616882   0.557400  0.095600    0.622193
   0   8   8  0  0.933595  0.535564    2.228430   -5.070699  293.724138   5.567102   5.457100  0.036300    3.030347
   1   8   8  0  0.937211  0.533498   -0.061658   -1.115290  266.835657   1.122709   1.297100  0.070400   -2.477149
   2   8   8  0  0.947979  0.527438    1.313219   -4.166602  287.493676   4.391004   4.401600  0.024200   -0.437864
   3   8   8  0  0.965658  0.517782    0.093664   -0.574614  279.257985   0.585177   0.714200  0.218500   -0.590496
   4   8   8  0  0.989878  0.505113    0.550987   -3.399519  279.206318   3.461502   3.549100  0.027900   -3.139727
   5   8   8  0  1.020174  0.490112   -0.001140    1.350442   90.048358   1.357352   1.327400  0.066000    0.453824
   6   8   8  0  1.056022  0.473475    1.007135   -3.080893  288.102414   3.257915   3.272800  0.025600   -0.581438
   7   8   8  0  1.096879  0.455839   -0.348154    0.583642  120.816879   0.683072   0.527000  0.245600    0.635472
   8   8   8  0  1.142208  0.437749    0.859492   -1.795725  295.577274   2.001004   1.971100  0.044400    0.673516
   9   8   8  0  1.191497  0.419640   -0.111461   -0.313528  250.429395   0.334454   0.561800  0.264200   -0.860506
  10   8   8  0  1.244276  0.401840    0.186965   -0.863137  282.222058   0.887673   0.809300  0.094100    0.832870
  11   8   8  0  1.300121  0.384580    0.098121    0.144253   55.776422   0.175354   0.262800  0.293500   -0.297943
   0  10   8  0  1.060913  0.471292    0.628541   -1.838061  288.878583   1.952498   1.929700  0.061100    0.373121
   1  10   8  0  1.064097  0.469882    0.347153    0.082437   13.358431   0.358633   0.556400  0.280500   -0.705053
   2  10   8  0  1.073593  0.465726    0.648073   -2.798538  283.038469   2.887295   2.855100  0.030700    1.048682
   3  10   8  0  1.089235  0.459038    0.162479    0.349932   65.093814   0.387787   0.583600  0.332600   -0.588734
   4  10   8  0  1.110764  0.450141    0.759918   -2.984516  284.285113   3.095500   3.088500  0.030800    0.227279
   5  10   8  0  1.137846  0.439427   -0.423668    0.276098  146.908328   0.508279   0.487100  0.343800    0.061604
   6  10   8  0  1.170094  0.427316    0.575399   -1.390387  292.481765   1.512445   1.486500  0.043500    0.596431
   7  10   8  0  1.207097  0.414217   -0.117809    0.016993  171.791966   0.119638   0.364700  0.336200   -0.728918
   8  10   8  0  1.248429  0.400503    0.151023   -0.792994  280.782690   0.811377   0.554300  0.260900    0.985347
   9  10   8  0  1.293678  0.386495    0.147584    0.203175   54.005927   0.252405   0.405600  0.150200   -1.019942
   0  12   8  0  1.198292  0.417260    0.092658   -1.758914  273.015489   1.770365   1.762700  0.056100    0.136623
   1  12   8  0  1.201112  0.416281   -0.111547    0.401488  105.527142   0.418828   0.336200  0.340200    0.242880
   2  12   8  0  1.209533  0.413383    0.384656   -1.518017  284.219117   1.574006   1.598700  0.042900   -0.575617
   3  12   8  0  1.223438  0.408684   -0.170767    0.312131  118.683145   0.357611   0.633500  0.162200   -1.700919
   4  12   8  0  1.242644  0.402368    0.466864   -1.082010  293.339168   1.184465   1.088000  0.056000    1.722582
   5  12   8  0  1.266910  0.394661    0.027077   -0.171704  278.961586   0.174715   0.479200  0.182700   -1.666583
   6  12   8  0  1.295951  0.385817    0.081578   -0.907035  275.139295   0.915356   0.866200  0.048300    1.017725
   1   1   9  0  0.738632  0.676927   -5.011030   -9.594145  242.421898  10.879338  10.940200  0.034800   -1.748901
   2   1   9  0  0.752248  0.664675   -0.119941   -2.412200  267.153438   2.427537   2.456900  0.035600   -0.824798
   3   1   9  0  0.774408  0.645654   -4.521478   -5.879677  232.439679   7.455117   7.399800  0.032900    1.681379
   4   1   9  0  0.804408  0.621575    0.342221    0.621484   61.160578   0.713107   0.907400  0.109100   -1.780872
   5   1   9  0  0.841408  0.594242   -3.723383   -5.105928  233.899441   6.351676   6.419900  0.030800   -2.215068
   6   1   9  0  0.884532  0.565271    0.027552    1.487087   88.938577   1.494952   1.550200  0.044200   -1.249949
   7   1   9  0  0.932929  0.535946   -2.395349   -4.688120  242.935683   5.291551   5.315100  0.033700   -0.698782
   8   1   9  0  0.985825  0.507189   -0.225901   -0.474078  244.521905   0.527836   0.748400  0.127100   -1.735355
   9   1   9  0  1.042534  0.479601   -1.308536   -2.313309  240.505095   2.671354   2.629800  0.027500    1.511053
  10   1   9  0  1.102468  0.453528    0.110552   -0.449073  283.829955   0.464847   0.514700  0.370500   -0.134556
  11   1   9  0  1.165129  0.429137   -0.859784   -0.916434  226.826757   1.263044   1.220400  0.059300    0.719116
  12   1   9  0  1.230102  0.406471    0.119424    0.270858   66.206904   0.297532   0.319600  0.328100   -0.067261
  13   1   9  0  1.297037  0.385494   -0.501404   -0.687190  233.883888   0.855020   0.856100  0.053400   -0.020219
   1   3   9  0  0.775892  0.644420   -4.542926   -5.574763  230.823089   7.228190   7.201100  0.031700    0.854569
   2   3   9  0  0.788865  0.633822    0.538172   -0.707803  307.247235   0.893714   0.938700  0.121600   -0.369949
   3   3   9  0  0.810024  0.617266   -4.372456   -8.405113  242.515927   9.522878   9.391500  0.037300    3.522204
   4   3   9  0  0.838750  0.596125    0.085979    0.539077   80.938090   0.548683   0.561700  0.284600   -0.045737
   5   3   9  0  0.874299  0.571887   -2.922356   -5.751190  243.063481   6.484081   6.407000  0.030300    2.543913
   6   3   9  0  0.915875  0.545926   -0.215312    0.582829  110.275514   0.624508   0.856300  0.191100   -1.212937
   7   3   9  0  0.962698  0.519374   -1.954992   -2.056526  226.449878   2.851998   2.873200  0.033100   -0.640550
   8   3   9  0  1.014042  0.493076    0.137852   -0.187847  306.273195   0.234193   0.543000  0.266400   -1.159185
   9   3   9  0  1.069256  0.467615   -1.589553   -1.864377  229.549347   2.462552   2.558900  0.032700   -2.946420
  10   3   9  0  1.127770  0.443353    0.230032    0.034467    8.521655   0.233790   0.413800  0.348000   -0.517271
  11   3   9  0  1.189099  0.420486   -0.817941   -1.624849  243.279537   1.828417   1.768300  0.043100    1.394836
  12   3   9  0  1.252829  0.399097    0.015814    0.218835   85.866769   0.220528   0.442700  0.223600   -0.993613
   1   5   9  0  0.845500  0.591366   -4.172022   -5.705879  233.826497   7.104605   7.254500  0.035200   -4.258390
   2   5   9  0  0.857420  0.583145    0.118583    2.230887   86.957310   2.245467   2.276300  0.038500   -0.800849
   3   5   9  0  0.876926  0.570173   -2.770380   -5.071605  241.354289   5.808512   5.793900  0.028900    0.505606
   4   5   9  0  0.903528  0.553386   -0.141528   -0.292234  244.159258   0.326362   0.544800  0.188600   -1.158205
   5   5   9  0  0.936621  0.533834   -2.349841   -3.591047  236.800838   4.313505   4.245900  0.025100    2.693409
   6   5   9  0  0.975545  0.512534    0.248611   -0.999082  283.973653   1.034817   1.206500  0.063100   -2.720806
   7   5   9  0  1.019632  0.490373   -2.148788   -2.542724  229.799735   3.346108   3.330600  0.026300    0.589642
   8   5   9  0  1.068243  0.468058    0.387172    0.715162   61.569922   0.817401   0.950200  0.076100   -1.745058
   9   5   9  0  1.120789  0.446114   -1.163218   -1.834335  237.619745   2.183177   2.201600  0.034600   -0.532446
  10   5   9  0  1.176744  0.424901   -0.019394    0.585997   91.895528   0.589317   0.592100  0.263600   -0.010556
  11   5   9  0  1.235645  0.404647   -0.485966   -0.917237  242.084677   1.043332   0.921000  0.078500    1.558365
  12   5   9  0  1.297090  0.385478   -0.026372   -0.140511  259.370141   0.143696   0.404700  0.122300   -2.134133
   1   7   9  0  0.940299  0.531746   -2.572808   -4.806825  241.842495   5.479951   5.483900  0.025700   -0.153656
   2   7   9  0  0.951031  0.525745   -0.499290   -0.329757  213.442823   0.601417   0.822000  0.115800   -1.904860
   3   7   9  0  0.968654  0.516180   -2.430328   -2.251262  222.809563   3.329754   3.324200  0.029800    0.186392
   4   7   9  0  0.992802  0.503625    0.357922    0.109814   17.056528   0.376305   0.492100  0.247500   -0.467858
   5   7   9  0  1.023011  0.488753   -2.165179   -2.280536  226.486369   3.160743   3.250000  0.030500   -2.926461
   6   7   9  0  1.058763  0.472249    0.511924    0.609225   49.960093   0.799824   0.759800  0.180400    0.221860
   7   7   9  0  1.099518  0.454745   -1.322540   -2.626548  243.273467   2.955772   3.020700  0.029000   -2.238902
   8   7   9  0  1.144742  0.436780   -0.073404    0.292832  104.072335   0.303437   0.458600  0.336200   -0.461520
   9   7   9  0  1.193926  0.418786   -0.653904   -1.170010  240.799736   1.347199   1.319300  0.054800    0.509102
  10   7   9  0  1.246603  0.401090   -0.004998   -0.052628  264.574678   0.053136   0.371300  0.302500   -1.051782
   1   9   9  0  1.053510  0.474604   -1.569128   -1.964278  231.381023   2.526934   2.484000  0.036800    1.166684
   2   9   9  0  1.063100  0.470322    0.337642   -0.637985  297.889194   0.725515   0.965900  0.086700   -2.772602
   3   9   9  0  1.078895  0.463437   -1.985755   -2.453874  231.019089   3.172846   3.289300  0.030100   -3.868914
   4   9   9  0  1.100626  0.454287    0.198076    0.466226   66.981789   0.509150   0.532500  0.243000   -0.096091
   5   9   9  0  1.127951  0.443282   -1.330484   -1.982978  236.140264   2.400186   2.428000  0.034500   -0.806208
   6   9   9  0  1.160475  0.430858   -0.084517    0.610430   97.882737   0.619407   0.704900  0.178200   -0.479760
   7   9   9  0  1.197774  0.417441   -0.663119   -0.930719  234.530870   1.148635   1.136900  0.060300    0.194615
   8   9   9  0  1.239418  0.403415    0.084378   -0.113360  306.661622   0.142038   0.435900  0.227000   -1.294544
   9   9   9  0  1.284983  0.389110   -0.671369   -0.589083  221.264856   0.897741   1.376800  0.047000  -10.192734
   1  11   9  0  1.179846  0.423784   -1.302583   -1.129559  220.930799   1.732952   1.785600  0.040500   -1.299958
   2  11   9  0  1.188417  0.420728    0.245508    0.490060   63.390316   0.550922   0.336000  0.344100    0.624592
   3  11   9  0  1.202567  0.415777   -0.850581   -1.468362  239.917479   1.705613   1.689000  0.040600    0.409192
   4  11   9  0  1.222101  0.409132   -0.033363    0.096019  109.160566   0.102170   0.494600  0.307800   -1.274951
   5  11   9  0  1.246766  0.401037   -0.672825   -0.947226  234.613410   1.167810   1.143400  0.053300    0.457971
   6  11   9  0  1.276266  0.391768    0.028326   -0.151386  280.598191   0.154801   0.379900  0.210400   -1.069863
   0   0  10  0  0.810241  0.617100   -8.053866   -2.872901  199.631865   8.594677   8.682500  0.079800   -1.100542
   2   0  10  0  0.826775  0.604760   -6.898067   -0.332648  182.760853   6.941419   6.881100  0.045900    1.314132
   4   0  10  0  0.874500  0.571755   -5.558876    1.221974  167.602205   5.720722   5.653700  0.037700    1.777775
   6   0  10  0  0.948723  0.527024   -4.608221   -0.828337  190.190216   4.706033   4.731300  0.043400   -0.582190
   8   0  10  0  1.043806  0.479016   -2.774181   -0.958544  199.061214   2.950130   2.931800  0.045400    0.403755
  10   0  10  0  1.154606  0.433048   -1.406457    0.246775  170.048273   1.435248   1.463700  0.065000   -0.437719
  12   0  10  0  1.277039  0.391531   -0.913405    0.173113  169.268306   0.934422   0.849600  0.076200    1.113150
   0   2  10  0  0.827470  0.604252   -6.735682    0.011567  179.901610   6.770156   6.801500  0.044200   -0.709144
   1   2  10  0  0.831548  0.601288   -0.253130   -1.486607  260.336737   1.515720   1.594600  0.050100   -1.574455
   2   2  10  0  0.843665  0.592652   -6.782867   -0.551717  184.650187   6.840088   6.845000  0.031700   -0.154949
   3   2  10  0  0.863483  0.579050    0.109426   -0.947005  276.591265   0.958183   0.838100  0.109000    1.101683
   4   2  10  0  0.890487  0.561491   -5.809358   -0.894034  188.748921   5.907823   5.912700  0.034100   -0.143013
   5   2  10  0  0.924047  0.541098    0.437028    1.287513   71.250955   1.366619   1.348500  0.059300    0.305556
   6   2  10  0  0.963479  0.518953   -3.834825   -0.235230  183.510158   3.861691   3.888800  0.033300   -0.814080
   7   2  10  0  1.008093  0.495986   -0.082261    0.300908  105.289733   0.313546   0.488500  0.335000   -0.522252
   8   2  10  0  1.057235  0.472932   -2.479311    0.101049  177.666090   2.494066   2.455400  0.038800    0.996542
   9   2  10  0  1.110303  0.450328   -0.039653   -0.636298  266.434076   0.640794   0.531100  0.222200    0.493674
  10   2  10  0  1.166761  0.428537   -1.640434   -0.110372  183.849174   1.652555   1.641500  0.037100    0.297977
  11   2  10  0  1.226141  0.407784    0.207253   -0.001617  359.553115   0.208320   0.381300  0.311300   -0.555669
  12   2  10  0  1.288039  0.388187   -0.858280   -0.121293  188.043837   0.871243   0.761700  0.065000    1.685284
   0   4  10  0  0.877127  0.570043   -5.944376    1.096333  169.550249   6.075558   6.116400  0.039800   -1.026183
   1   4  10  0  0.880976  0.567552    0.532652    0.684494   52.111066   0.871761   0.802900  0.156400    0.440290
   2   4  10  0  0.892422  0.560273   -5.709914   -0.583192  185.831784   5.768987   5.850500  0.028000   -2.911179
   3   4  10  0  0.911180  0.548739    0.373929    0.572160   56.833798   0.687010   0.833200  0.105100   -1.390959
   4   4  10  0  0.936810  0.533726   -4.565225   -1.386442  196.893347   4.795523   4.842700  0.022800   -2.069164
   5   4  10  0  0.968766  0.516120   -0.246272   -0.528500  245.015307   0.586046   0.537300  0.311700    0.156386
   6   4  10  0  1.006448  0.496797   -3.169527    0.268477  175.158275   3.197153   3.152700  0.030200    1.471945
   7   4  10  0  1.049237  0.476537    0.217835   -0.285623  307.331513   0.361049   0.584500  0.214900   -1.039790
   8   4  10  0  1.096536  0.455981   -2.330633    0.391825  170.456705   2.375432   2.378600  0.038400   -0.082491
   9   4  10  0  1.147788  0.435620    0.393896    0.297896   37.099522   0.496386   0.597100  0.184900   -0.544696
  10   4  10  0  1.202487  0.415805   -1.427116   -0.330423  193.036105   1.472363   1.452500  0.044500    0.446369
  11   4  10  0  1.260185  0.396767    0.046565    0.102013   65.465031   0.112712   0.412900  0.298000   -1.007343
   0   6  10  0  0.954164  0.524019   -4.965468   -1.153977  193.083324   5.123881   5.177000  0.034600   -1.535234
   1   6  10  0  0.957703  0.522083   -0.093472    0.670367   97.937779   0.680316   0.616900  0.172700    0.367202
   2   6  10  0  0.968243  0.516400   -4.012571   -0.079865  181.140252   4.033901   4.055300  0.027200   -0.786743
   3   6  10  0  0.985558  0.507327   -0.046697    0.335412   97.925911   0.340380   0.665300  0.246000   -1.320814
   4   6  10  0  1.009301  0.495392   -3.080887    0.714558  166.942119   3.178849   3.139600  0.030300    1.295336
   5   6  10  0  1.039031  0.481218    0.349043   -0.613037  299.655793   0.709049   0.724000  0.168200   -0.088887
   6   6  10  0  1.074250  0.465441   -2.848634   -0.179542  183.606429   2.868891   2.864900  0.030600    0.130421
   7   6  10  0  1.114439  0.448656    0.426338    0.013925    1.870706   0.428747   0.452200  0.366800   -0.063938
   8   6  10  0  1.159081  0.431376   -1.834504   -0.461730  194.127463   1.901398   1.915300  0.035800   -0.388331
   9   6  10  0  1.207681  0.414017    0.097776    0.321324   73.075393   0.337590   0.504900  0.211100   -0.792564
  10   6  10  0  1.259783  0.396894   -0.849587    0.090783  173.900778   0.858795   0.850100  0.067200    0.129397
   0   8  10  0  1.052585  0.475021   -2.612122   -0.344211  187.506866   2.648184   2.642500  0.049000    0.115997
   1   8  10  0  1.055795  0.473577   -0.202525   -0.588157  250.999442   0.625232   0.487700  0.210700    0.652736
   2   8  10  0  1.065364  0.469323   -2.808858    0.152674  176.888786   2.827397   2.805900  0.031200    0.689001
   3   8  10  0  1.081125  0.462481    0.106401   -0.441071  283.562585   0.456045   0.573400  0.272200   -0.431137
   4   8  10  0  1.102813  0.453386   -2.666382    0.270508  174.207080   2.693782   2.677600  0.034100    0.474539
   5   8  10  0  1.130085  0.442445    0.494113    0.507751   45.779909   0.712116   0.768300  0.158500   -0.354474
   6   8  10  0  1.162549  0.430089   -1.741370   -0.216951  187.101678   1.763811   1.797800  0.042300   -0.803517
   7   8  10  0  1.199784  0.416742    0.119965    0.207807   60.002610   0.241176   0.349500  0.248800   -0.435386
   8   8  10  0  1.241360  0.402784   -0.997311   -0.030834  181.770879   1.002892   0.891200  0.068300    1.635322
   9   8  10  0  1.286857  0.388544    0.040688   -0.279886  278.271333   0.284275   0.455300  0.150500   -1.136380
   0  10  10  0  1.166993  0.428451   -1.714815    0.634716  159.688631   1.837867   1.820100  0.062700    0.283373
   1  10  10  0  1.169889  0.427391    0.278412   -0.075889  344.752903   0.290046   0.583000  0.293800   -0.997121
   2  10  10  0  1.178532  0.424257   -1.800382    0.040082  178.724638   1.810042   1.790400  0.040400    0.486186
   3  10  10  0  1.192799  0.419182    0.300523    0.046800    8.851530   0.305701   0.491100  0.333300   -0.556252
   4  10  10  0  1.212490  0.412374   -1.519123   -0.335516  192.454514   1.563694   1.549600  0.044200    0.318860
   5  10  10  0  1.237348  0.404090   -0.037614    0.097785  111.039781   0.105306   0.546500  0.271700   -1.623829
   6  10  10  0  1.267067  0.394612   -0.971351    0.196471  168.565289   0.996092   1.014000  0.063800   -0.280691
   0  12  10  0  1.293152  0.386652   -1.225155    0.077066  176.400668   1.233858   1.129300  0.047200    2.215201
   1  12  10  0  1.295765  0.385872    0.046384    0.209673   77.525795   0.215841   0.406600  0.187200   -1.019011
   1   1  11  0  0.898985  0.556183   -3.711022    3.528596  136.443449   5.147009   5.202600  0.024900   -2.232586
   2   1  11  0  0.910205  0.549327   -0.454158   -1.047400  246.558174   1.147465   1.219400  0.068700   -1.047083
   3   1  11  0  0.928603  0.538443   -2.905879    4.216580  124.572881   5.147108   5.156500  0.024400   -0.384937
   4   1  11  0  0.953765  0.524238    0.275412    0.144639   27.707273   0.312674   0.506900  0.330400   -0.587851
   5   1  11  0  0.985172  0.507526   -2.462414    3.061428  128.810945   3.948947   3.938400  0.029000    0.363704
   6   1  11  0  1.022249  0.489118    0.261452    0.598408   66.398887   0.656372   0.581500  0.222600    0.336353
   7   1  11  0  1.064403  0.469747   -1.810887    1.542186  139.581651   2.390751   2.374200  0.036900    0.448535
   8   1  11  0  1.111057  0.450022   -0.200954   -0.216682  227.156797   0.297035   0.620500  0.312900   -1.033766
   9   1  11  0  1.161668  0.430415   -0.934397    1.182408  128.317534   1.514757   1.455100  0.052300    1.140667
  10   1  11  0  1.215743  0.411271   -0.015709   -0.270846  266.680559   0.272690   0.555200  0.178300   -1.584466
  11   1  11  0  1.272840  0.392822   -0.530740    0.869585  121.397252   1.023969   0.943300  0.056500    1.427762
   1   3  11  0  0.929841  0.537726   -2.802165    4.416318  122.395229   5.257057   5.314500  0.025800   -2.226474
   2   3  11  0  0.940693  0.531523    0.160362   -0.508184  287.513548   0.535612   0.492600  0.340000    0.126506
   3   3  11  0  0.958507  0.521645   -3.239808    2.420997  143.230496   4.065145   4.082100  0.026100   -0.649636
   4   3  11  0  0.982903  0.508697    0.135968    0.084622   31.896842   0.160970   0.367800  0.340200   -0.607967
   5   3  11  0  1.013407  0.493385   -2.151229    2.107287  135.591190   3.026794   3.065500  0.031000   -1.248577
   6   3  11  0  1.049487  0.476423   -0.024013    0.142487   99.566141   0.145235   0.490000  0.326200   -1.056912
   7   3  11  0  1.090589  0.458468   -1.137697    2.308693  116.233537   2.586964   2.586100  0.038300    0.022554
   8   3  11  0  1.136168  0.440076    0.036998   -0.266705  277.897726   0.270637   0.506500  0.366800   -0.643030
   9   3  11  0  1.185708  0.421689   -1.011028    1.253034  128.898833   1.618291   1.514400  0.047800    2.173457
  10   3  11  0  1.238734  0.403638    0.131940   -0.133532  314.656239   0.188681   0.327200  0.306900   -0.451349
  11   3  11  0  1.294818  0.386155   -0.631023    0.432854  145.551587   0.769130   0.545200  0.090800    2.466189
   1   5  11  0  0.988669  0.505730   -2.652472    3.027632  131.221206   4.045786   4.109200  0.025900   -2.448405
   2   5  11  0  0.998882  0.500560    0.433242    0.861659   63.306746   0.969380   0.875600  0.108700    0.862744
   3   5  11  0  1.015675  0.492283   -1.868416    2.458631  127.232712   3.103816   3.137900  0.030300   -1.124872
   4   5  11  0  1.038730  0.481357   -0.132650   -0.300263  246.165154   0.329939   0.503100  0.317700   -0.545046
   5   5  11  0  1.067640  0.468323   -1.494990    2.146989  124.850244   2.629596   2.631200  0.033300   -0.048166
   6   5  11  0  1.101946  0.453743   -0.043623   -0.731840  266.588783   0.736890   0.733200  0.140200    0.026323
   7   5  11  0  1.141160  0.438151   -1.333630    1.579168  130.181564   2.077540   1.999800  0.041900    1.855360
   8   5  11  0  1.184795  0.422014    0.327581    0.057071    9.882831   0.334217   0.570400  0.300300   -0.786490
   9   5  11  0  1.232382  0.405718   -0.788105    0.835778  133.318396   1.154631   1.169900  0.048800   -0.312887
  10   5  11  0  1.283481  0.389566    0.083019    0.133904   58.201514   0.158357   0.472600  0.169100   -1.858324
   1   7  11  0  1.070868  0.466911   -1.718889    1.707739  135.186441   2.435402   2.411000  0.036300    0.672233
   2   7  11  0  1.080304  0.462833   -0.335825   -0.170602  206.930936   0.378601   0.561800  0.277800   -0.659464
   3   7  11  0  1.095850  0.456267   -1.261749    2.477929  116.984967   2.794901   2.749700  0.031800    1.421420
   4   7  11  0  1.117252  0.447527    0.196316   -0.236231  309.727789   0.308728   0.518100  0.366800   -0.570806
   5   7  11  0  1.144180  0.436994   -1.225361    1.768932  124.710822   2.162901   2.066500  0.036800    2.619584
   6   7  11  0  1.176255  0.425078    0.375529   -0.042649  353.520614   0.379877   0.458800  0.248900   -0.317087
   7   7  11  0  1.213069  0.412178   -0.934066    0.731911  141.918636   1.192736   1.225500  0.055900   -0.586110
   8   7  11  0  1.254205  0.398659   -0.001254   -0.038707  268.144541   0.038925   0.380400  0.240100   -1.422220
   9   7  11  0  1.299252  0.384837   -0.398013    0.674468  120.545473   0.787156   0.786200  0.058100    0.016449
   1   9  11  0  1.171529  0.426793   -0.784137    1.605221  116.035113   1.795647   1.789300  0.042500    0.149340
   2   9  11  0  1.180161  0.423671    0.063996   -0.477656  277.630968   0.484389   0.344900  0.284200    0.490814
   3   9  11  0  1.194408  0.418617   -1.149401    1.224735  133.182565   1.688206   1.624500  0.042200    1.509629
   4   9  11  0  1.214073  0.411837    0.179116    0.012067    3.854055   0.180441   0.372700  0.332200   -0.578745
   5   9  11  0  1.238899  0.403584   -0.787705    0.902509  131.114266   1.204045   1.214600  0.050100   -0.210683
   6   9  11  0  1.268581  0.394141    0.039427    0.115724   71.186156   0.122881   0.306000  0.306900   -0.596672
   1  11  11  0  1.286325  0.388704   -0.606187    1.044966  120.118103   1.214244   1.141000  0.040000    1.831110
   2  11  11  0  1.294192  0.386342    0.215495    0.112275   27.520042   0.244232   0.454900  0.225900   -0.932570
   0   0  12  0  0.972290  0.514250    0.320176    3.113096   84.127880   3.145530   3.250500  0.079600   -1.318720
   2   0  12  0  0.986110  0.507043    0.938613    3.771261   76.023857   3.906195   3.976900  0.038300   -1.846084
   4   0  12  0  1.026454  0.487114    1.054675    3.724810   74.190602   3.891054   3.882000  0.039200    0.230971
   6   0  12  0  1.090382  0.458555    0.267483    2.118836   82.805012   2.146580   2.143200  0.062200    0.054336
   8   0  12  0  1.174047  0.425877    0.231317    1.168005   78.797833   1.196782   1.268300  0.081000   -0.882934
  10   0  12  0  1.273566  0.392598    0.378703    1.000421   69.266142   1.075173   1.072100  0.078100    0.039350
   0   2  12  0  0.986693  0.506743    1.102666    3.878006   74.127513   4.052353   4.166400  0.036500   -3.124571
   1   2  12  0  0.990116  0.504992   -0.352825   -0.586051  238.950477   0.687562   0.684400  0.189100    0.016724
   2   2  12  0  1.000314  0.499843    0.737096    3.500693   78.109643   3.595756   3.600600  0.027500   -0.176134
   3   2  12  0  1.017083  0.491602   -0.141613   -0.458857  252.848609   0.482669   0.549000  0.305100   -0.217407
   4   2  12  0  1.040107  0.480720    0.446124    2.754406   80.799846   2.804578   2.754300  0.033200    1.514387
   5   2  12  0  1.068980  0.467736    0.318644    0.408899   52.071664   0.521046   0.608700  0.262600   -0.333793
   6   2  12  0  1.103244  0.453209    0.587947    2.119277   74.494500   2.210575   2.164400  0.040400    1.142951
   7   2  12  0  1.142413  0.437670   -0.072278    0.093134  127.813857   0.118493   0.425600  0.355700   -0.863387
   8   2  12  0  1.186002  0.421584    0.449800    1.508351   73.395083   1.582042   1.470400  0.051800    2.155260
   9   2  12  0  1.233543  0.405337   -0.171355   -0.309727  241.046599   0.355779   0.657000  0.121700   -2.475107
  10   2  12  0  1.284596  0.389228    0.166515    0.869302   79.156301   0.889635   0.748500  0.096600    1.461026
   0   4  12  0  1.028693  0.486054    0.981385    3.739532   75.295165   3.885944   3.923200  0.038800   -0.960199
   1   4  12  0  1.031976  0.484507    0.315092    0.157996   26.630517   0.354289   0.420800  0.344100   -0.193290
   2   4  12  0  1.041765  0.479955    0.624895    2.852082   77.641714   2.934677   2.940500  0.031100   -0.187245
   3   4  12  0  1.057877  0.472645    0.166208    0.107820   32.971590   0.199131   0.372000  0.336200   -0.514186
   4   4  12  0  1.080032  0.462949    0.472704    1.954644   76.404818   2.021280   2.018900  0.047100    0.050536
   5   4  12  0  1.107865  0.451319   -0.326209   -0.262288  218.800988   0.420719   0.634300  0.192000   -1.112401
   6   4  12  0  1.140961  0.438227    0.635933    1.968602   72.097588   2.079354   2.055700  0.040700    0.581179
   7   4  12  0  1.178878  0.424132   -0.068413   -0.261030  255.313639   0.271227   0.421100  0.271200   -0.552630
   8   4  12  0  1.221166  0.409445    0.340128    1.455211   76.844371   1.502078   1.467600  0.046700    0.738295
   9   4  12  0  1.267389  0.394512    0.132809   -0.019840  351.503686   0.134969   0.488300  0.288400   -1.225141
   0   6  12  0  1.095119  0.456572    0.249461    2.013948   82.938918   2.039723   2.052600  0.061200   -0.210412
   1   6  12  0  1.098204  0.455289    0.011089    0.284202   87.765575   0.285873   0.492600  0.370500   -0.557966
   2   6  12  0  1.107407  0.451505    0.703253    2.198786   72.263798   2.320323   2.315700  0.037800    0.122304
   3   6  12  0  1.122578  0.445403   -0.092962    0.078085  139.970873   0.122026   0.531800  0.377700   -1.084920
   4   6  12  0  1.143479  0.437262    0.839026    2.132156   68.519827   2.303023   2.284600  0.035000    0.526382
   5   6  12  0  1.169804  0.427422   -0.077092   -0.443318  260.135064   0.452274   0.518000  0.330700   -0.198749
   6   6  12  0  1.201195  0.416252    0.252707    1.405689   79.808534   1.435531   1.405100  0.051500    0.590890
   7   6  12  0  1.237267  0.404116    0.065407   -0.171856  290.836407   0.184823   0.287500  0.269600   -0.380849
   8   6  12  0  1.277624  0.391351    0.152374    0.768207   78.780995   0.787180   0.824100  0.083100   -0.444285
   0   8  12  0  1.181860  0.423062    0.650704    1.356138   64.367292   1.511866   1.548600  0.066400   -0.553230
   1   8  12  0  1.184719  0.422041   -0.231410   -0.245040  226.638661   0.338763   0.487400  0.226500   -0.656234
   2   8  12  0  1.193255  0.419022    0.522378    1.568466   71.579647   1.661627   1.635800  0.041900    0.616386
   3   8  12  0  1.207348  0.414131   -0.127477   -0.290078  246.276601   0.318474   0.381700  0.340200   -0.185850
   4   8  12  0  1.226805  0.407563    0.308972    1.449437   77.966551   1.489585   1.420500  0.045600    1.515023
   5   8  12  0  1.251378  0.399559    0.178540    0.038710   12.233220   0.183623   0.339500  0.315600   -0.493906
   6   8  12  0  1.280772  0.390390    0.300829    0.842071   70.340785   0.898768   0.870500  0.070000    0.403829
   0  10  12  0  1.284807  0.389163    0.534375    1.205601   66.094973   1.325471   1.240000  0.064500    1.325127
   1  10  12  0  1.287438  0.388368    0.092864   -0.113495  309.290870   0.147395   0.610800  0.137100   -3.380049
   2  10  12  0  1.295297  0.386012    0.326408    0.926716   70.596722   0.987546   0.921800  0.061900    1.062136
   1   1  13  0  1.059854  0.471763    2.403907    0.943699   21.433426   2.595720   2.599800  0.033700   -0.121076
   2   1  13  0  1.069387  0.467558   -0.347380   -0.329642  223.499208   0.481342   0.433900  0.289500    0.163874
   3   1  13  0  1.085090  0.460791    2.423476    1.209825   26.528862   2.722533   2.732700  0.033400   -0.304405
   4   1  13  0  1.106699  0.451794    0.102942    0.014238    7.874731   0.104454   0.548300  0.361000   -1.229491
   5   1  13  0  1.133878  0.440964    1.788566    0.890253   26.461682   2.008100   1.913900  0.043800    2.150695
   6   1  13  0  1.166237  0.428729    0.153931    0.204066   52.972095   0.256920   0.352400  0.351900   -0.271326
   7   1  13  0  1.203358  0.415504    1.142497    0.399472   19.272067   1.216514   1.160100  0.059100    0.954554
   8   1  13  0  1.244814  0.401666   -0.147246   -0.041162  195.617985   0.153673   0.421700  0.319800   -0.838107
   9   1  13  0  1.290190  0.387540    0.847667    0.302656   19.648900   0.904683   0.878400  0.082300    0.319361
   1   3  13  0  1.086150  0.460342    2.520572    1.230266   26.016533   2.819139   2.798500  0.034000    0.607043
   2   3  13  0  1.095454  0.456432   -0.048593   -0.221695  257.637051   0.228120   0.556500  0.355700   -0.923195
   3   3  13  0  1.110788  0.450131    1.711558    0.633280   20.304566   1.834296   1.830700  0.045700    0.078693
   4   3  13  0  1.131907  0.441732   -0.015368    0.036895  112.612805   0.040172   0.545800  0.348700   -1.450037
   5   3  13  0  1.158495  0.431594    1.543458    0.507849   18.212931   1.633174   1.604700  0.047400    0.600723
   6   3  13  0  1.190184  0.420103   -0.093123    0.089034  136.286203   0.129496   0.379800  0.348000   -0.719264
   7   3  13  0  1.226581  0.407637    1.364882    0.631016   24.812160   1.511384   1.491200  0.045900    0.439741
   8   3  13  0  1.267278  0.394546   -0.110721   -0.096031  220.935793   0.147315   0.466500  0.301900   -1.057256
   1   5  13  0  1.136918  0.439786    1.761487    0.813477   24.788087   1.950180   1.869300  0.044800    1.805362
   2   5  13  0  1.145810  0.436373    0.231662    0.293967   51.759902   0.376193   0.402600  0.355700   -0.074239
   3   5  13  0  1.160479  0.430857    1.747629    0.536144   17.055152   1.837373   1.847000  0.041200   -0.233661
   4   5  13  0  1.180710  0.423474   -0.218758   -0.063087  196.086841   0.228838   0.381800  0.348000   -0.439547
   5   5  13  0  1.206222  0.414517    1.414738    0.521436   20.232597   1.515487   1.410900  0.048600    2.152004
   6   5  13  0  1.236689  0.404305   -0.251549   -0.257986  225.723763   0.362167   0.438200  0.225800   -0.336725
   7   5  13  0  1.271755  0.393157    0.883642    0.445634   26.762489   0.994717   0.930900  0.065400    0.975793
   1   7  13  0  1.209080  0.413538    1.286217    0.300386   13.145366   1.327586   1.254000  0.054600    1.347721
   2   7  13  0  1.217445  0.410696   -0.247159    0.015555  176.398862   0.248915   0.337200  0.336200   -0.262596
   3   7  13  0  1.231261  0.406088    1.401788    0.622019   23.928417   1.541443   1.508600  0.042900    0.765574
   4   7  13  0  1.250347  0.399889   -0.070695   -0.103275  235.607313   0.125794   0.344500  0.319800   -0.683883
   5   7  13  0  1.274466  0.392321    0.985055    0.449854   24.545181   1.088455   1.016200  0.052400    1.378905
   1   9  13  0  1.299075  0.384889    1.064413    0.292032   15.342140   1.109395   1.024400  0.052000    1.634511
   0   0  14  0  1.134338  0.440786    1.443626   -1.196259  320.353189   1.884450   2.047400  0.094800   -1.718878
   2   0  14  0  1.146206  0.436222    1.704595   -0.914968  331.774643   1.944533   1.921700  0.059400    0.384398
   4   0  14  0  1.181094  0.423336    1.600288   -0.591245  339.722654   1.714745   1.712700  0.060000    0.034087
   6   0  14  0  1.237056  0.404185    0.917523   -0.605667  326.570746   1.105025   1.082500  0.080900    0.278435
   0   2  14  0  1.146707  0.436031    1.773617   -0.919719  332.590759   2.008121   1.982200  0.055700    0.465376
   1   2  14  0  1.149654  0.434913   -0.212048   -0.151021  215.458464   0.261662   0.427400  0.293900   -0.563927
   2   2  14  0  1.158449  0.431612    1.537861   -0.870516  330.487685   1.776190   1.739200  0.046000    0.804136
   3   2  14  0  1.172960  0.426272   -0.125041   -0.117444  223.205469   0.172425   0.450200  0.355700   -0.780926
   4   2  14  0  1.192979  0.419119    1.200701   -0.767267  327.420802   1.432205   1.395300  0.051800    0.712460
   5   2  14  0  1.218234  0.410430    0.151610    0.148905   44.484262   0.213593   0.410500  0.336200   -0.585685
   6   2  14  0  1.248408  0.400510    1.005098   -0.597198  329.282512   1.175113   1.195700  0.057300   -0.359287
   7   2  14  0  1.283154  0.389665   -0.039830    0.095081  112.729106   0.103614   0.304600  0.306900   -0.654891
   0   4  14  0  1.183040  0.422640    1.549997   -0.627825  337.949634   1.680877   1.646100  0.064700    0.537515
   1   4  14  0  1.185896  0.421622    0.131943    0.028186   12.058506   0.135611   0.610800  0.186900   -2.542478
   2   4  14  0  1.194424  0.418612    1.262541   -0.802383  327.562802   1.503591   1.461900  0.049500    0.842241
   3   4  14  0  1.208503  0.413735    0.053205    0.074484   54.461010   0.092003   0.393600  0.279400   -1.079444
   4   4  14  0  1.227943  0.407185    0.989704   -0.836753  319.786885   1.302652   1.233800  0.052400    1.313972
   5   4  14  0  1.252493  0.399204   -0.195893    0.035580  169.705588   0.200116   0.326700  0.319800   -0.395822
   6   4  14  0  1.281861  0.390058    0.918684   -0.481251  332.352277   1.042410   0.912700  0.070900    1.829477
   0   6  14  0  1.241233  0.402825    0.847822   -0.744183  318.724708   1.133872   1.159200  0.075500   -0.335464
   1   6  14  0  1.243956  0.401943    0.028972    0.137371   78.090691   0.141111   0.429500  0.230400   -1.251686
   2   6  14  0  1.252088  0.399333    1.022847   -0.669193  326.805458   1.228562   1.215400  0.050100    0.262710
   3   6  14  0  1.265526  0.395093   -0.059745    0.116926  117.065548   0.131978   0.411600  0.221900   -1.260127
   4   6  14  0  1.284103  0.389377    0.998514   -0.496757  333.549800   1.120963   1.047000  0.050900    1.453108
   1   1  15  0  1.221035  0.409489    0.105201   -1.383501  274.348385   1.394594   1.339900  0.051100    1.070337
   2   1  15  0  1.229319  0.406729   -0.153653   -0.056540  200.202182   0.164564   0.445700  0.247700   -1.134988
   3   1  15  0  1.243002  0.402252    0.234402   -1.143204  281.587307   1.172959   1.136600  0.063600    0.571681
   4   1  15  0  1.261911  0.396225    0.045264    0.003252    4.109893   0.045612   0.322300  0.319800   -0.865189
   5   1  15  0  1.285813  0.388859    0.129140   -0.916573  278.019868   0.930362   0.831700  0.073200    1.347835
   1   3  15  0  1.243928  0.401953    0.246190   -1.155583  282.026693   1.187562   1.123800  0.054200    1.176424
   2   3  15  0  1.252060  0.399342   -0.028789   -0.050503  240.314828   0.058429   0.400600  0.315600   -1.084191
   3   3  15  0  1.265498  0.395101   -0.021898   -1.117325  268.877246   1.123257   1.164600  0.055600   -0.743578
   4   3  15  0  1.284075  0.389385    0.022713    0.056586   68.129771   0.061286   0.356000  0.203100   -1.451079
   1   5  15  0  1.288494  0.388050    0.049010   -0.951224  272.949469   0.957359   0.939700  0.056700    0.311449
   2   5  15  0  1.296347  0.385699    0.135801    0.104478   37.572811   0.172217   0.255300  0.243300   -0.341483
   0   0  16  0  1.296386  0.385688   -0.798664   -0.691411  220.883047   1.061773   0.968400  0.117900    0.791971
