# ========================
# Tonto generated CIF file
# ========================

# Note: This is an incomplete CIF file, edit it
# in order for it to be acceptable

data_urea

_audit_creation_date               2016-3-10
_audit_creation_method             'Tonto 3.6.1 github v. e66da9e'

# ======================
# Tonto software version
# ======================

_QCr_software                      'Tonto'
_QCr_software_version              '3.6.1 v. e66da9e'
_QCr_software_platform             'Linux-3.16.0-60-generic'
_QCr_software_build_date           '2016-03-10 17:53'
_QCr_software_website              'https://github.com/dylan-jayatilaka/tonto'

# ================
# Publication info
# ================

_publ_contact_author
;
    Dr. Tonto Magnifico
;
_publ_contact_author_email          'tonto.magnifico@gmail.com'
_publ_contact_author_phone          '+61 8 6488 3138'
_publ_requested_journal             'IUCrJ'
_publ_section_title
;
   'Hirshfeld atom-refinement (HAR) for urea'
   'X-ray wavefunction refinement (XWR) for urea'
   Tonto Magnifico, IUCrJ (XXXX)
;

loop_
    _publ_author_name
    'Tonto Magnifico'

_publ_author_address
;
    Prof. Dr. Sir Tonto Magnifico
    1 El Camino Ciberespacio
    Tierra Austral del Espiritu Santo
;

# ====================
# Chemical information
# ====================

_chemical_name_common               urea
_chemical_formula_sum               'C H4 N2 O'
_chemical_formula_moiety            'C H4 N2 O'
_chemical_formula_weight            60.0558
_chemical_compound_source           'see text'
_chemical_absolute_configuration    unk

# ==================
# QCr method details
# ==================

_QCr_calc_method                    'Kohn-Sham/becke88lyp/SCCF L=1 R=8.0 A'
_QCr_calc_spinorbital_kind          'restricted'
_QCr_calc_gaussian_basis_set        '3-21G'
_QCr_calc_gaussian_basis_set_kind   'cartesian'
_QCr_calc_basis_max_l               '1'

_QCr_calc_unit                      'See _atom_site_* in fragment.cif'
_QCr_calc_unit_spin_multiplicity    1
_QCr_calc_unit_n_electrons          32
_QCr_calc_unit_n_alpha_electrons    16
_QCr_calc_unit_n_beta_electrons     16

_QCr_Becke_grid_kind                mura_knowles
_QCr_Becke_grid_accuracy            high
_QCr_Becke_grid_L_angular_grid      35
_QCr_Becke_grid_L_H_angular_grid    29
_QCr_Becke_grid_reduce_L_H_ang_grid T
_QCr_Becke_grid_core_pruning_scheme treutler_ahlrichs
_QCr_Becke_grid_scale_H-He_grid     T
_QCr_Becke_grid_n_pts_for_row_1     5890
_QCr_Becke_grid_n_pts_for_row_2     9212
_QCr_Becke_grid_n_pts_for_row_3     10542
_QCr_Becke_grid_n_radial_H_pts      35
_QCr_Becke_grid_H_pts_per_n_shell   5
_QCr_Becke_grid_basis_fn_cutoff     .1E-09
_QCr_Becke_grid_rho_cutoff          .1E-05

# ====================
# Symmetry information
# ====================

_symmetry_cell_setting             Tetragonal
_symmetry_space_group_name_H-M     'p -4 21 m'
_symmetry_space_group_name_Hall    'p -4 2ab'
_symmetry_Int_Tables_number        '113'

loop_
    _symmetry_equiv_pos_as_xyz
'+x, +y, +z'
'+y, -x, -z'
'+x+1/2, -y+1/2, -z'
'-x, -y, +z'
'+y+1/2, +x+1/2, +z'
'-y, +x, -z'
'-x+1/2, +y+1/2, -z'
'-y+1/2, -x+1/2, +z'

# =====================
# Unit cell information
# =====================

_cell_length_a                      5.578000(0)
_cell_length_b                      5.578000(0)
_cell_length_c                      4.686000(0)
_cell_angle_alpha                   90.000000(0)
_cell_angle_beta                    90.000000(0)
_cell_angle_gamma                   90.000000(0)
_cell_volume                        145.800598(0)

_cell_formula_units_Z               2.00000

_atom_sites_Cartn_tran_matrix_11    5.578000
_atom_sites_Cartn_tran_matrix_21    0.000000
_atom_sites_Cartn_tran_matrix_31    0.000000
_atom_sites_Cartn_tran_matrix_12    0.000000
_atom_sites_Cartn_tran_matrix_22    5.578000
_atom_sites_Cartn_tran_matrix_32    0.000000
_atom_sites_Cartn_tran_matrix_13    0.000000
_atom_sites_Cartn_tran_matrix_23    0.000000
_atom_sites_Cartn_tran_matrix_33    4.686000
_atom_sites_Cartn_tran_vector_1     0.000000
_atom_sites_Cartn_tran_vector_2     0.000000
_atom_sites_Cartn_tran_vector_3     0.000000

# ==================
# Refinement details
# ==================

_refine_ls_kind                    'Hirshfeld atom refinement (HAR)'
_refine_ls_method_description
;
   S.C. Capelli, H.-B. Burgi, B. Dittrich, S.Grabowsky
   and Dylan Jayatilaka, IUCrJ (2014). 1, 361â€“379
;
_refine_QCr_Psi_constraint         'none'

_refine_ls_SVD_threshold           0.1E-02
_refine_ls_coordinate_system       cartesian
_refine_ls_structure_factor_coeff  F
_refine_ls_matrix_type             full
_refine_ls_R_factor_gt             0.0217
_refine_ls_R_factor_all            0.0217
_refine_ls_wR_factor_gt            0.0159
_refine_ls_wR_factor_all           0.0159
_refine_ls_R_Fsqd_factor           0.0248
_refine_ls_goodness_of_fit_gt      3.8365
_refine_ls_goodness_of_fit_all     3.8365
_refine_ls_number_reflns           817
_refine_ls_number_parameters       27
_refine_ls_number_restraints       0
_refine_ls_number_constraints      0
_refine_ls_hydrogen_treatment      refall
_refine_ls_weighting_scheme        sigma
_refine_ls_weighting_details       'w=1/\s(F)'
_refine_ls_shift/su_conv_tol       0.0100
_refine_ls_shift/su_max            0.0040
_refine_ls_shift/su_max_mean       0.0008
_refine_ls_shift/su_max_par        'H3 Uyy'
_refine_ls_extinction_method       none

_refine_diff_density_max           0.0103
_refine_diff_density_min           -0.0137
_refine_diff_density_rms           0.0021
_refine_diff_density_max_atom      0.0023
_refine_diff_density_max_atom_tag  H3
_refine_diff_density_min_atom      -0.0034
_refine_diff_density_min_atom_tag  C
_refine_diff_density_rms_atom      0.0016

_refine_special_details
;
. If constraints were applied they are defined by zero
  eigenvalues of the least-squares hessian, see the
  value of _refine_ls_SVD_threshold
;

# ===============================
# Accurate fractional coordinates
# ===============================

# . These are precise parameters and ESDs
# . Keep these for a refinement restart
# . Better yet, use the refined cartesian parameters

loop_
_atom_site_label
_atom_site_fract_x
_atom_site_fract_x_esu
_atom_site_fract_y
_atom_site_fract_y_esu
_atom_site_fract_z
_atom_site_fract_z_esu
_atom_site_adp_type
_atom_site_occupancy
_atom_site_disorder_group
O
        0.000000
        0.000000
        0.500000
        0.000000
        0.595588
        0.000062
Uani
1.000000
0
N1
        0.144692
        0.000045
        0.644692
        0.000045
        0.178688
        0.000067
Uani
1.000000
0
N2
       -0.144692
        0.000045
        0.355308
        0.000045
        0.178688
        0.000067
Uani
1.000000
0
C
        0.000000
        0.000000
        0.500000
        0.000000
        0.328193
        0.000081
Uani
1.000000
0
H1
        0.251637
        0.000702
        0.751637
        0.000702
        0.283918
        0.000932
Uani
1.000000
0
H2
       -0.251637
        0.000702
        0.248363
        0.000702
        0.283918
        0.000932
Uani
1.000000
0
H3
        0.139863
        0.000799
        0.639863
        0.000799
       -0.026967
        0.001489
Uani
1.000000
0
H4
       -0.139863
        0.000799
        0.360137
        0.000799
       -0.026967
        0.001489
Uani
1.000000
0

# ======================
# Fractional coordinates
# ======================

# . These are in standard presentation

loop_
_atom_site_label
_atom_site_fract_x
_atom_site_fract_y
_atom_site_fract_z
_atom_site_adp_type
_atom_site_occupancy
_atom_site_disorder_group
O
     0.000000000(0)
     0.500000000(0)
         0.59559(6)
Uani
1.000000000
N1
         0.14469(4)
         0.64469(4)
         0.17869(7)
Uani
1.000000000
N2
        -0.14469(4)
         0.35531(4)
         0.17869(7)
Uani
1.000000000
C
     0.000000000(0)
     0.500000000(0)
         0.32819(8)
Uani
1.000000000
H1
          0.2516(7)
          0.7516(7)
          0.2839(9)
Uani
1.000000000
H2
         -0.2516(7)
          0.2484(7)
          0.2839(9)
Uani
1.000000000
H3
          0.1399(8)
          0.6399(8)
          -0.027(1)
Uani
1.000000000
H4
         -0.1399(8)
          0.3601(8)
          -0.027(1)
Uani
1.000000000

# ========================
# Crystal axis system ADPs
# ========================

# . These are precise parameters and ESDs
# . Keep these for a refinement restart
# . Better yet, use the refined cartesian parameters

loop_
_atom_site_aniso_label
_atom_site_aniso_U_11
_atom_site_aniso_U_11_esu
_atom_site_aniso_U_22
_atom_site_aniso_U_22_esu
_atom_site_aniso_U_33
_atom_site_aniso_U_33_esu
_atom_site_aniso_U_12
_atom_site_aniso_U_12_esu
_atom_site_aniso_U_13
_atom_site_aniso_U_13_esu
_atom_site_aniso_U_23
_atom_site_aniso_U_23_esu
O
        0.018728
        0.000089
        0.018728
        0.000089
        0.006556
        0.000074
        0.001784
        0.000144
        0.000000
        0.000000
        0.000000
        0.000000
N1
        0.028096
        0.000107
        0.028096
        0.000107
        0.009355
        0.000079
       -0.014073
        0.000143
        0.000030
        0.000067
        0.000030
        0.000067
N2
        0.028096
        0.000107
        0.028096
        0.000107
        0.009355
        0.000079
       -0.014073
        0.000143
       -0.000030
        0.000067
       -0.000030
        0.000067
C
        0.014490
        0.000087
        0.014490
        0.000087
        0.006653
        0.000090
        0.000430
        0.000146
        0.000000
        0.000000
        0.000000
        0.000000
H1
        0.053057
        0.003699
        0.053057
        0.003699
        0.012617
        0.003675
       -0.041544
        0.004412
       -0.003045
        0.002258
       -0.003045
        0.002258
H2
        0.053057
        0.003699
        0.053057
        0.003699
        0.012617
        0.003675
       -0.041544
        0.004412
        0.003045
        0.002258
        0.003045
        0.002258
H3
        0.046964
        0.002714
        0.046964
        0.002714
        0.035533
        0.004101
       -0.007864
        0.004974
        0.004602
        0.002843
        0.004602
        0.002843
H4
        0.046964
        0.002714
        0.046964
        0.002714
        0.035533
        0.004101
       -0.007864
        0.004974
       -0.004602
        0.002843
       -0.004602
        0.002843

# ========================
# Crystal axis system ADPs
# ========================

# . These are in standard presentation

loop_
_atom_site_aniso_label
_atom_site_aniso_U_11
_atom_site_aniso_U_22
_atom_site_aniso_U_33
_atom_site_aniso_U_12
_atom_site_aniso_U_13
_atom_site_aniso_U_23
O
         0.01873(9)
         0.01873(9)
         0.00656(7)
          0.0018(1)
     0.000000000(0)
     0.000000000(0)
N1
          0.0281(1)
          0.0281(1)
         0.00935(8)
         -0.0141(1)
         0.00003(7)
         0.00003(7)
N2
          0.0281(1)
          0.0281(1)
         0.00935(8)
         -0.0141(1)
        -0.00003(7)
        -0.00003(7)
C
         0.01449(9)
         0.01449(9)
         0.00665(9)
          0.0004(1)
     0.000000000(0)
     0.000000000(0)
H1
           0.053(4)
           0.053(4)
           0.013(4)
          -0.042(4)
          -0.003(2)
          -0.003(2)
H2
           0.053(4)
           0.053(4)
           0.013(4)
          -0.042(4)
           0.003(2)
           0.003(2)
H3
           0.047(3)
           0.047(3)
           0.036(4)
          -0.008(5)
           0.005(3)
           0.005(3)
H4
           0.047(3)
           0.047(3)
           0.036(4)
          -0.008(5)
          -0.005(3)
          -0.005(3)

# Tonto-specific key and data

#

# NOTE: Cartesian 9Nx9N covariance matrix in BOHR units
# The order of the variables (per atom) is as follows:
# . Elements 1-3: positions: x y x
# . Elements 4-9: 2nd order ADPs:
#      U 11 22 33 12 13 23
# . Elements 10-19: 3rd order ADPs (if refined):
#      U 111 222 333 112 113 122 223 133 233 123
# . Elements 20-34: 4th order ADPs (if refined):
#      U 1112 1113 1222 2223 1333 2333
#        1122 1133 2233 1123 1223 1233

_asym_unit_covariance_matrix
[
  0.72777171E-32  0.34991237E-30  0.53877745E-20 -0.30842087E-20 -0.30842087E-20
 -0.12259868E-20 -0.26229669E-20  0.16087784E-30  0.96221806E-30  0.14349809E-20
  0.14349809E-20  0.47372539E-20  0.32050014E-20  0.32050014E-20 -0.13461150E-20
 -0.96771742E-20 -0.91441725E-21 -0.91441725E-21  0.20120344E-31  0.50622162E-31
  0.29919296E-20 -0.13585298E-20 -0.13585298E-20 -0.13903281E-20 -0.85224502E-21
 -0.43105765E-31 -0.22170956E-31 -0.83163133E-19 -0.83163133E-19 -0.98340420E-19
  0.34145845E-18  0.34145845E-18 -0.12004671E-18 -0.47312753E-18  0.17412508E-18
  0.17412508E-18 -0.12987839E-18 -0.12987839E-18  0.31612833E-18 -0.32017564E-18
 -0.32017564E-18  0.77686440E-18  0.87161670E-18 -0.12265340E-18 -0.12265340E-18

  0.34991237E-30  0.41679779E-28 -0.36563329E-19 -0.11590448E-18 -0.11590448E-18
 -0.16938603E-20 -0.32876987E-18  0.64356288E-29  0.81413568E-28  0.19909804E-18
  0.19909803E-18  0.35437924E-18  0.39843443E-18  0.39843443E-18 -0.21468205E-18
 -0.64374316E-18  0.60406423E-19  0.60406423E-19  0.28979065E-29  0.43114699E-29
 -0.56213909E-19 -0.10234059E-18 -0.10234059E-18 -0.31079286E-20 -0.92499383E-19
 -0.30923447E-29 -0.12968722E-29  0.73239256E-17  0.73239256E-17 -0.37941301E-17
  0.58930848E-16  0.58930848E-16 -0.34559198E-16 -0.40615533E-16  0.24363506E-17
  0.24363506E-17  0.45731645E-17  0.45731645E-17  0.16816010E-16 -0.33641867E-16
 -0.33641867E-16  0.27208186E-16  0.72765181E-16  0.11016984E-17  0.11016984E-17

  0.53877745E-20 -0.36563329E-19  0.29687235E-06  0.23673676E-08  0.23673676E-08
  0.23546774E-09  0.93681477E-08  0.18216638E-18  0.30465602E-18  0.29218973E-08
  0.29218973E-08 -0.91120744E-08  0.12405287E-07  0.12405287E-07 -0.75926234E-08
 -0.10231275E-07  0.33925382E-09  0.33925382E-09  0.13868003E-20  0.29471928E-19
  0.20102260E-08 -0.20378335E-08 -0.20378335E-08  0.36753544E-08 -0.87386523E-08
 -0.38291090E-19 -0.27938176E-19 -0.11298662E-06 -0.11298662E-06  0.36591837E-06
 -0.23965170E-06 -0.23965170E-06 -0.52230823E-06  0.11513830E-06 -0.27118512E-06
 -0.27118512E-06 -0.24102995E-06 -0.24102995E-06  0.44342830E-06 -0.19910293E-06
 -0.19910293E-06  0.15605714E-05 -0.13345161E-06 -0.14573943E-06 -0.14573943E-06

 -0.30842087E-20 -0.11590448E-18  0.23673676E-08  0.10103845E-06  0.10103845E-06
 -0.24437793E-07  0.21677550E-07 -0.46286262E-19 -0.38702831E-18  0.17977552E-08
  0.17977552E-08 -0.88823629E-08  0.50436788E-08  0.50436788E-08  0.10868582E-07
 -0.62301151E-08  0.22739104E-09  0.22739104E-09 -0.54646713E-20 -0.21417519E-19
 -0.26941220E-08 -0.21374868E-07 -0.21374868E-07  0.14160553E-07 -0.23309942E-07
  0.31004876E-19  0.22364336E-19  0.22250668E-06  0.22250668E-06  0.81017963E-07
  0.49862754E-07  0.49862754E-07  0.10399205E-06 -0.10382375E-06 -0.15102519E-06
 -0.15102519E-06  0.10452700E-06  0.10452700E-06 -0.57618413E-06  0.57339225E-06
  0.57339225E-06 -0.41509018E-06  0.50661519E-07  0.31262204E-07  0.31262204E-07

 -0.30842087E-20 -0.11590448E-18  0.23673676E-08  0.10103845E-06  0.10103845E-06
 -0.24437793E-07  0.21677550E-07 -0.46286262E-19 -0.38702831E-18  0.17977552E-08
  0.17977552E-08 -0.88823629E-08  0.50436788E-08  0.50436788E-08  0.10868582E-07
 -0.62301151E-08  0.22739104E-09  0.22739104E-09 -0.54646714E-20 -0.21417519E-19
 -0.26941220E-08 -0.21374868E-07 -0.21374868E-07  0.14160553E-07 -0.23309942E-07
  0.31004876E-19  0.22364336E-19  0.22250668E-06  0.22250668E-06  0.81017963E-07
  0.49862754E-07  0.49862754E-07  0.10399205E-06 -0.10382375E-06 -0.15102519E-06
 -0.15102519E-06  0.10452700E-06  0.10452700E-06 -0.57618413E-06  0.57339225E-06
  0.57339225E-06 -0.41509018E-06  0.50661519E-07  0.31262204E-07  0.31262204E-07

 -0.12259868E-20 -0.16938603E-20  0.23546774E-09 -0.24437793E-07 -0.24437793E-07
  0.69550201E-07 -0.28112008E-08 -0.31123131E-19 -0.78657123E-19  0.41888065E-08
  0.41888065E-08 -0.78002746E-09  0.88041560E-08  0.88041560E-08 -0.12894383E-07
 -0.32222101E-08  0.52196085E-09  0.52196085E-09 -0.45204767E-23 -0.44143763E-20
 -0.41356153E-08  0.10865272E-07  0.10865272E-07 -0.11084594E-07  0.15172369E-08
  0.46738454E-20  0.34469558E-20  0.72647388E-07  0.72647388E-07  0.16185552E-06
  0.19344257E-07  0.19344257E-07 -0.10954594E-06  0.30530682E-07 -0.10109216E-06
 -0.10109216E-06  0.93061185E-09  0.93061185E-09 -0.19858071E-06 -0.45654334E-07
 -0.45654334E-07 -0.67490168E-07 -0.12403738E-06 -0.12172317E-07 -0.12172317E-07

 -0.26229669E-20 -0.32876987E-18  0.93681477E-08  0.21677550E-07  0.21677550E-07
 -0.28112008E-08  0.26312804E-06  0.38183618E-19 -0.60879367E-18  0.11238379E-07
  0.11238379E-07 -0.10707407E-07  0.44849874E-08  0.44849874E-08 -0.69070455E-09
  0.10407482E-07  0.47711807E-08  0.47711807E-08  0.24763046E-19 -0.25331147E-19
 -0.13975980E-07 -0.47421714E-08 -0.47421714E-08  0.19701397E-08 -0.59140596E-07
  0.13472829E-19 -0.50188302E-20 -0.43059726E-06 -0.43059726E-06  0.22471372E-06
  0.21087072E-07  0.21087072E-07 -0.16451271E-06 -0.51825587E-06  0.22793192E-06
  0.22793192E-06  0.31802341E-06  0.31802341E-06 -0.46720391E-06  0.19605168E-06
  0.19605168E-06 -0.12179060E-07 -0.18031357E-05  0.46395437E-06  0.46395437E-06

  0.16087784E-30  0.64356288E-29  0.18216638E-18 -0.46286262E-19 -0.46286262E-19
 -0.31123131E-19  0.38183618E-19  0.62323746E-29  0.22768146E-28  0.31211365E-19
  0.31211365E-19  0.27635689E-19 -0.17955681E-19 -0.17955681E-19 -0.19131052E-19
 -0.38764049E-19 -0.42766687E-20 -0.42766687E-20  0.11517556E-29  0.12980437E-29
  0.89770910E-19 -0.25775516E-19 -0.25775516E-19 -0.38522071E-19 -0.76365529E-20
 -0.98965818E-30 -0.57356253E-30 -0.34991982E-17 -0.34991982E-17 -0.16448369E-17
  0.16436414E-16  0.16436414E-16 -0.92644455E-17 -0.25653083E-16  0.31294572E-17
  0.31294572E-17 -0.22091717E-17 -0.22091717E-17  0.63067093E-17 -0.18165507E-17
 -0.18165507E-17  0.24099953E-16  0.57878388E-18 -0.22628194E-17 -0.22628194E-17

  0.96221806E-30  0.81413568E-28  0.30465602E-18 -0.38702831E-18 -0.38702831E-18
 -0.78657123E-19 -0.60879367E-18  0.22768146E-28  0.18632803E-27  0.61739273E-18
  0.61739273E-18  0.91974461E-18  0.64680770E-18  0.64680770E-18 -0.40391644E-18
 -0.11880920E-17  0.13009483E-19  0.13009483E-19  0.63453828E-29  0.95698986E-29
  0.94940714E-19 -0.22193659E-18 -0.22193659E-18 -0.95287369E-19 -0.15253382E-18
 -0.71945796E-29 -0.32675169E-29  0.69650536E-17  0.69650536E-17 -0.13082567E-16
  0.12092359E-15  0.12092359E-15 -0.57790046E-16 -0.11718605E-15  0.14052455E-16
  0.14052455E-16 -0.43090414E-17 -0.43090414E-17  0.45909887E-16 -0.71904952E-16
 -0.71904952E-16  0.90629072E-16  0.12506604E-15 -0.22128302E-16 -0.22128302E-16

  0.14349809E-20  0.19909804E-18  0.29218973E-08  0.17977552E-08  0.17977552E-08
  0.41888065E-08  0.11238379E-07  0.31211365E-19  0.61739273E-18  0.22349427E-06
  0.22349427E-06  0.13663138E-07  0.97534484E-08  0.97534484E-08 -0.20854112E-08
 -0.35023193E-08  0.78979630E-09  0.78979630E-09  0.10245911E-19  0.16217404E-19
 -0.21198509E-07  0.35840365E-08  0.35840365E-08  0.10262283E-08  0.67303595E-08
  0.96017877E-20  0.19644397E-19  0.57813444E-06  0.57813444E-06  0.58032088E-06
  0.83362910E-06  0.83362910E-06  0.68630145E-06 -0.44205788E-06 -0.37391019E-06
 -0.37391019E-06 -0.97430210E-06 -0.97430210E-06  0.34895392E-06 -0.24598787E-06
 -0.24598787E-06 -0.34739433E-06 -0.79967622E-07 -0.80244811E-06 -0.80244811E-06

  0.14349809E-20  0.19909803E-18  0.29218973E-08  0.17977552E-08  0.17977552E-08
  0.41888065E-08  0.11238379E-07  0.31211365E-19  0.61739273E-18  0.22349427E-06
  0.22349427E-06  0.13663138E-07  0.97534484E-08  0.97534484E-08 -0.20854112E-08
 -0.35023193E-08  0.78979630E-09  0.78979630E-09  0.10245911E-19  0.16217404E-19
 -0.21198509E-07  0.35840365E-08  0.35840365E-08  0.10262283E-08  0.67303595E-08
  0.96017877E-20  0.19644397E-19  0.57813444E-06  0.57813444E-06  0.58032088E-06
  0.83362910E-06  0.83362910E-06  0.68630145E-06 -0.44205788E-06 -0.37391019E-06
 -0.37391019E-06 -0.97430210E-06 -0.97430210E-06  0.34895392E-06 -0.24598787E-06
 -0.24598787E-06 -0.34739433E-06 -0.79967622E-07 -0.80244811E-06 -0.80244811E-06

  0.47372539E-20  0.35437924E-18 -0.91120744E-08 -0.88823629E-08 -0.88823629E-08
 -0.78002746E-09 -0.10707407E-07  0.27635689E-19  0.91974461E-18  0.13663138E-07
  0.13663138E-07  0.35057429E-06  0.48735506E-09  0.48735506E-09 -0.96460056E-08
 -0.36882969E-08  0.43187216E-08  0.43187216E-08 -0.31569333E-19  0.16408382E-19
 -0.30624759E-07 -0.67191755E-08 -0.67191755E-08  0.63902550E-08 -0.40231170E-08
 -0.53066266E-19 -0.33413249E-19  0.75007920E-06  0.75007920E-06 -0.96224990E-06
 -0.22268573E-06 -0.22268573E-06  0.14203819E-05 -0.79513284E-06  0.84228316E-07
  0.84228316E-07  0.54875731E-07  0.54875731E-07  0.20064850E-05 -0.10797846E-05
 -0.10797846E-05  0.19043234E-06  0.34222406E-06  0.22364428E-06  0.22364428E-06

  0.32050014E-20  0.39843443E-18  0.12405287E-07  0.50436788E-08  0.50436788E-08
  0.88041560E-08  0.44849874E-08 -0.17955681E-19  0.64680770E-18  0.97534484E-08
  0.97534484E-08  0.48735506E-09  0.14525861E-06  0.14525861E-06 -0.27386043E-07
 -0.12587110E-06  0.41166774E-09  0.41166774E-09  0.16453740E-20  0.37087427E-19
 -0.63070995E-08  0.59222293E-08  0.59222293E-08  0.44555259E-08  0.66855945E-09
 -0.34763897E-19 -0.16521015E-19  0.12788147E-06  0.12788147E-06  0.23597892E-06
  0.20764661E-06  0.20764661E-06 -0.13055601E-06  0.31764646E-06 -0.15364725E-06
 -0.15364725E-06 -0.13784645E-06 -0.13784645E-06  0.32428787E-06 -0.61825365E-06
 -0.61825365E-06  0.38442853E-06  0.10600567E-05  0.21500947E-06  0.21500947E-06

  0.32050014E-20  0.39843443E-18  0.12405287E-07  0.50436788E-08  0.50436788E-08
  0.88041560E-08  0.44849874E-08 -0.17955681E-19  0.64680770E-18  0.97534484E-08
  0.97534484E-08  0.48735506E-09  0.14525861E-06  0.14525861E-06 -0.27386043E-07
 -0.12587110E-06  0.41166774E-09  0.41166774E-09  0.16453740E-20  0.37087427E-19
 -0.63070995E-08  0.59222293E-08  0.59222293E-08  0.44555259E-08  0.66855945E-09
 -0.34763897E-19 -0.16521015E-19  0.12788147E-06  0.12788147E-06  0.23597892E-06
  0.20764661E-06  0.20764661E-06 -0.13055601E-06  0.31764646E-06 -0.15364725E-06
 -0.15364725E-06 -0.13784645E-06 -0.13784645E-06  0.32428787E-06 -0.61825365E-06
 -0.61825365E-06  0.38442853E-06  0.10600567E-05  0.21500947E-06  0.21500947E-06

 -0.13461150E-20 -0.21468205E-18 -0.75926234E-08  0.10868582E-07  0.10868582E-07
 -0.12894383E-07 -0.69070455E-09 -0.19131052E-19 -0.40391644E-18 -0.20854112E-08
 -0.20854112E-08 -0.96460056E-08 -0.27386043E-07 -0.27386043E-07  0.80436958E-07
  0.10035280E-07  0.10469005E-08  0.10469005E-08 -0.15917995E-19 -0.24732617E-19
  0.11572042E-07  0.32100656E-08  0.32100656E-08  0.37550665E-08 -0.23629699E-08
  0.25241158E-19  0.14829629E-19  0.52834646E-07  0.52834646E-07 -0.17905401E-06
 -0.22392034E-06 -0.22392034E-06  0.44597492E-06 -0.84482325E-08  0.76189508E-07
  0.76189508E-07 -0.60559628E-07 -0.60559628E-07 -0.42437811E-06  0.43016331E-06
  0.43016331E-06 -0.27797984E-06 -0.13411594E-06  0.86010546E-08  0.86010546E-08

 -0.96771742E-20 -0.64374316E-18 -0.10231275E-07 -0.62301151E-08 -0.62301151E-08
 -0.32222101E-08  0.10407482E-07 -0.38764049E-19 -0.11880920E-17 -0.35023193E-08
 -0.35023193E-08 -0.36882969E-08 -0.12587110E-06 -0.12587110E-06  0.10035280E-07
  0.26166458E-06  0.11772674E-08  0.11772674E-08  0.61974612E-20 -0.66481224E-19
 -0.33569585E-09 -0.85136397E-08 -0.85136397E-08 -0.10887274E-08 -0.47861128E-09
  0.50963572E-19  0.19636002E-19  0.10647795E-06  0.10647795E-06  0.67810052E-07
 -0.17382243E-06 -0.17382243E-06 -0.12236471E-06 -0.44269369E-06 -0.16620608E-06
 -0.16620608E-06  0.35887115E-06  0.35887115E-06 -0.54822015E-06  0.45248560E-06
  0.45248560E-06 -0.38179571E-06 -0.28834100E-05 -0.33857116E-06 -0.33857116E-06

 -0.91441725E-21  0.60406423E-19  0.33925382E-09  0.22739104E-09  0.22739104E-09
  0.52196085E-09  0.47711807E-08 -0.42766687E-20  0.13009483E-19  0.78979630E-09
  0.78979630E-09  0.43187216E-08  0.41166774E-09  0.41166774E-09  0.10469005E-08
  0.11772674E-08  0.57785475E-07  0.57785475E-07  0.21383566E-20 -0.17626682E-20
 -0.10360784E-07  0.23372334E-08  0.23372334E-08  0.37918789E-09 -0.15078022E-08
 -0.34591359E-20 -0.30084256E-20  0.19293942E-06  0.19293942E-06  0.96637094E-07
  0.10875080E-06  0.10875080E-06  0.18419874E-06 -0.36242872E-06 -0.86775508E-07
 -0.86775508E-07  0.26758095E-06  0.26758095E-06  0.11590993E-06  0.33793068E-08
  0.33793068E-08 -0.26527147E-08 -0.64027675E-07  0.37084201E-06  0.37084201E-06

 -0.91441725E-21  0.60406423E-19  0.33925382E-09  0.22739104E-09  0.22739104E-09
  0.52196085E-09  0.47711807E-08 -0.42766687E-20  0.13009483E-19  0.78979630E-09
  0.78979630E-09  0.43187216E-08  0.41166774E-09  0.41166774E-09  0.10469005E-08
  0.11772674E-08  0.57785475E-07  0.57785475E-07  0.21383566E-20 -0.17626682E-20
 -0.10360784E-07  0.23372334E-08  0.23372334E-08  0.37918789E-09 -0.15078022E-08
 -0.34591359E-20 -0.30084256E-20  0.19293942E-06  0.19293942E-06  0.96637094E-07
  0.10875080E-06  0.10875080E-06  0.18419874E-06 -0.36242872E-06 -0.86775508E-07
 -0.86775508E-07  0.26758095E-06  0.26758095E-06  0.11590993E-06  0.33793068E-08
  0.33793068E-08 -0.26527147E-08 -0.64027675E-07  0.37084201E-06  0.37084201E-06

  0.20120344E-31  0.28979065E-29  0.13868003E-20 -0.54646713E-20 -0.54646714E-20
 -0.45204767E-23  0.24763046E-19  0.11517556E-29  0.63453828E-29  0.10245911E-19
  0.10245911E-19 -0.31569333E-19  0.16453740E-20  0.16453740E-20 -0.15917995E-19
  0.61974612E-20  0.21383566E-20  0.21383566E-20  0.52674722E-30  0.40691499E-30
  0.47988250E-20 -0.87232341E-20 -0.87232341E-20 -0.15902525E-20 -0.24301473E-20
 -0.20794439E-30 -0.97731375E-31 -0.85924795E-18 -0.85924795E-18 -0.27614983E-18
  0.88186046E-17  0.88186046E-17 -0.59307338E-17 -0.61673622E-17  0.46506434E-18
  0.46506434E-18  0.64631236E-18  0.64631236E-18  0.29719616E-18 -0.38341046E-18
 -0.38341046E-18  0.27751817E-17 -0.35556630E-18  0.17396904E-18  0.17396904E-18

  0.50622162E-31  0.43114699E-29  0.29471928E-19 -0.21417519E-19 -0.21417519E-19
 -0.44143763E-20 -0.25331147E-19  0.12980437E-29  0.95698986E-29  0.16217404E-19
  0.16217404E-19  0.16408382E-19  0.37087427E-19  0.37087427E-19 -0.24732617E-19
 -0.66481224E-19 -0.17626682E-20 -0.17626682E-20  0.40691499E-30  0.56233056E-30
  0.11527725E-19 -0.15787698E-19 -0.15787698E-19 -0.58164874E-20 -0.60036183E-20
 -0.40723786E-30 -0.20162049E-30 -0.38011790E-18 -0.38011790E-18 -0.63499207E-18
  0.72680810E-17  0.72680810E-17 -0.47961731E-17 -0.44325284E-17  0.49123394E-18
  0.49123394E-18  0.77393031E-19  0.77393031E-19  0.23076100E-17 -0.31766726E-17
 -0.31766726E-17  0.63231192E-17  0.64950523E-17 -0.25073229E-19 -0.25073229E-19

  0.29919296E-20 -0.56213909E-19  0.20102260E-08 -0.26941220E-08 -0.26941220E-08
 -0.41356153E-08 -0.13975980E-07  0.89770910E-19  0.94940714E-19 -0.21198509E-07
 -0.21198509E-07 -0.30624759E-07 -0.63070995E-08 -0.63070995E-08  0.11572042E-07
 -0.33569585E-09 -0.10360784E-07 -0.10360784E-07  0.47988250E-20  0.11527725E-19
  0.50870656E-06 -0.10895549E-09 -0.10895549E-09 -0.32454362E-08  0.20272705E-07
 -0.37562867E-20 -0.27938591E-20 -0.33882545E-06 -0.33882545E-06 -0.55470410E-06
  0.10558720E-06  0.10558720E-06  0.53523770E-06 -0.47359854E-07 -0.27385793E-07
 -0.27385793E-07  0.31803482E-07  0.31803482E-07  0.38862591E-06  0.25654993E-06
  0.25654993E-06  0.16627121E-06  0.25668001E-06  0.79390336E-07  0.79390336E-07

 -0.13585298E-20 -0.10234059E-18 -0.20378335E-08 -0.21374868E-07 -0.21374868E-07
  0.10865272E-07 -0.47421714E-08 -0.25775516E-19 -0.22193659E-18  0.35840365E-08
  0.35840365E-08 -0.67191755E-08  0.59222293E-08  0.59222293E-08  0.32100656E-08
 -0.85136397E-08  0.23372334E-08  0.23372334E-08 -0.87232341E-20 -0.15787698E-19
 -0.10895549E-09  0.96954394E-07  0.96954394E-07 -0.34369381E-07  0.22661503E-07
  0.16652024E-19  0.11141544E-19  0.34217508E-07  0.34217508E-07  0.76595808E-07
 -0.97137893E-07 -0.97137893E-07  0.23059280E-06 -0.12753477E-06 -0.12223703E-06
 -0.12223703E-06 -0.13538716E-06 -0.13538716E-06 -0.24616232E-06  0.13225824E-06
  0.13225824E-06 -0.27413879E-06 -0.16731628E-06  0.22932980E-07  0.22932980E-07

 -0.13585298E-20 -0.10234059E-18 -0.20378335E-08 -0.21374868E-07 -0.21374868E-07
  0.10865272E-07 -0.47421714E-08 -0.25775516E-19 -0.22193659E-18  0.35840365E-08
  0.35840365E-08 -0.67191755E-08  0.59222293E-08  0.59222293E-08  0.32100656E-08
 -0.85136397E-08  0.23372334E-08  0.23372334E-08 -0.87232341E-20 -0.15787698E-19
 -0.10895549E-09  0.96954394E-07  0.96954394E-07 -0.34369381E-07  0.22661503E-07
  0.16652024E-19  0.11141544E-19  0.34217508E-07  0.34217508E-07  0.76595808E-07
 -0.97137893E-07 -0.97137893E-07  0.23059280E-06 -0.12753477E-06 -0.12223703E-06
 -0.12223703E-06 -0.13538716E-06 -0.13538716E-06 -0.24616232E-06  0.13225824E-06
  0.13225824E-06 -0.27413879E-06 -0.16731628E-06  0.22932980E-07  0.22932980E-07

 -0.13903281E-20 -0.31079286E-20  0.36753544E-08  0.14160553E-07  0.14160553E-07
 -0.11084594E-07  0.19701397E-08 -0.38522071E-19 -0.95287369E-19  0.10262283E-08
  0.10262283E-08  0.63902550E-08  0.44555259E-08  0.44555259E-08  0.37550665E-08
 -0.10887274E-08  0.37918789E-09  0.37918789E-09 -0.15902525E-20 -0.58164874E-20
 -0.32454362E-08 -0.34369381E-07 -0.34369381E-07  0.10234651E-06 -0.53274103E-08
  0.89177843E-20  0.71979738E-20  0.83572776E-07  0.83572776E-07  0.39925626E-09
  0.58908025E-07  0.58908025E-07  0.40496886E-07  0.52022403E-07 -0.12208985E-06
 -0.12208985E-06  0.43576345E-07  0.43576345E-07 -0.53503375E-07  0.59501372E-07
  0.59501372E-07 -0.22078559E-06  0.13812997E-07 -0.15738807E-07 -0.15738807E-07

 -0.85224502E-21 -0.92499383E-19 -0.87386523E-08 -0.23309942E-07 -0.23309942E-07
  0.15172369E-08 -0.59140596E-07 -0.76365529E-20 -0.15253382E-18  0.67303595E-08
  0.67303595E-08 -0.40231170E-08  0.66855945E-09  0.66855945E-09 -0.23629699E-08
 -0.47861128E-09 -0.15078022E-08 -0.15078022E-08 -0.24301473E-20 -0.60036183E-20
  0.20272705E-07  0.22661503E-07  0.22661503E-07 -0.53274103E-08  0.27266979E-06
  0.52932948E-20  0.25715969E-20 -0.15207934E-06 -0.15207934E-06 -0.64024310E-07
 -0.79565902E-07 -0.79565902E-07  0.12334008E-07  0.18465246E-06 -0.28787411E-07
 -0.28787411E-07  0.15797447E-06  0.15797447E-06  0.25665892E-06  0.72099530E-07
  0.72099530E-07 -0.92158083E-07 -0.13688714E-06 -0.15626973E-06 -0.15626973E-06

 -0.43105765E-31 -0.30923447E-29 -0.38291090E-19  0.31004876E-19  0.31004876E-19
  0.46738454E-20  0.13472829E-19 -0.98965818E-30 -0.71945796E-29  0.96017877E-20
  0.96017877E-20 -0.53066266E-19 -0.34763897E-19 -0.34763897E-19  0.25241158E-19
  0.50963572E-19 -0.34591359E-20 -0.34591359E-20 -0.20794439E-30 -0.40723786E-30
 -0.37562867E-20  0.16652024E-19  0.16652024E-19  0.89177843E-20  0.52932948E-20
  0.40083819E-30  0.23583905E-30  0.48098681E-19  0.48098681E-19  0.55037987E-18
 -0.29954894E-17 -0.29954894E-17  0.32895450E-17  0.28863172E-17 -0.66939722E-18
 -0.66939722E-18 -0.63470467E-18 -0.63470467E-18 -0.28261253E-17  0.42141046E-17
  0.42141046E-17 -0.70938596E-17 -0.44326956E-17 -0.61712369E-18 -0.61712369E-18

 -0.22170956E-31 -0.12968722E-29 -0.27938176E-19  0.22364336E-19  0.22364336E-19
  0.34469558E-20 -0.50188302E-20 -0.57356253E-30 -0.32675169E-29  0.19644397E-19
  0.19644397E-19 -0.33413249E-19 -0.16521015E-19 -0.16521015E-19  0.14829629E-19
  0.19636002E-19 -0.30084256E-20 -0.30084256E-20 -0.97731375E-31 -0.20162049E-30
 -0.27938591E-20  0.11141544E-19  0.11141544E-19  0.71979738E-20  0.25715969E-20
  0.23583905E-30  0.15975255E-30  0.28517375E-18  0.28517375E-18  0.34429941E-18
 -0.80649833E-18 -0.80649833E-18  0.19849795E-17  0.10385557E-17 -0.64866475E-18
 -0.64866475E-18 -0.51430168E-18 -0.51430168E-18 -0.16501731E-17  0.24543546E-17
  0.24543546E-17 -0.48705398E-17 -0.10610200E-17 -0.99575931E-18 -0.99575931E-18

 -0.83163133E-19  0.73239256E-17 -0.11298662E-06  0.22250668E-06  0.22250668E-06
  0.72647388E-07 -0.43059726E-06 -0.34991982E-17  0.69650536E-17  0.57813444E-06
  0.57813444E-06  0.75007920E-06  0.12788147E-06  0.12788147E-06  0.52834646E-07
  0.10647795E-06  0.19293942E-06  0.19293942E-06 -0.85924795E-18 -0.38011790E-18
 -0.33882545E-06  0.34217508E-07  0.34217508E-07  0.83572776E-07 -0.15207934E-06
  0.48098681E-19  0.28517375E-18  0.54793685E-04  0.54793685E-04 -0.40797259E-06
  0.24532825E-05  0.24532825E-05  0.49896226E-05 -0.69740107E-05 -0.64169875E-05
 -0.64169875E-05  0.68351060E-05  0.68351060E-05  0.65162973E-05 -0.32574789E-05
 -0.32574789E-05  0.64944426E-06  0.68346395E-05 -0.12010403E-04 -0.12010403E-04

 -0.83163133E-19  0.73239256E-17 -0.11298662E-06  0.22250668E-06  0.22250668E-06
  0.72647388E-07 -0.43059726E-06 -0.34991982E-17  0.69650536E-17  0.57813444E-06
  0.57813444E-06  0.75007920E-06  0.12788147E-06  0.12788147E-06  0.52834646E-07
  0.10647795E-06  0.19293942E-06  0.19293942E-06 -0.85924795E-18 -0.38011790E-18
 -0.33882545E-06  0.34217508E-07  0.34217508E-07  0.83572776E-07 -0.15207934E-06
  0.48098681E-19  0.28517375E-18  0.54793685E-04  0.54793685E-04 -0.40797259E-06
  0.24532825E-05  0.24532825E-05  0.49896226E-05 -0.69740107E-05 -0.64169875E-05
 -0.64169875E-05  0.68351060E-05  0.68351060E-05  0.65162973E-05 -0.32574789E-05
 -0.32574789E-05  0.64944426E-06  0.68346395E-05 -0.12010403E-04 -0.12010403E-04

 -0.98340420E-19 -0.37941301E-17  0.36591837E-06  0.81017963E-07  0.81017963E-07
  0.16185552E-06  0.22471372E-06 -0.16448369E-17 -0.13082567E-16  0.58032088E-06
  0.58032088E-06 -0.96224990E-06  0.23597892E-06  0.23597892E-06 -0.17905401E-06
  0.67810052E-07  0.96637094E-07  0.96637094E-07 -0.27614983E-18 -0.63499207E-18
 -0.55470410E-06  0.76595808E-07  0.76595808E-07  0.39925626E-09 -0.64024310E-07
  0.55037987E-18  0.34429941E-18 -0.40797259E-06 -0.40797259E-06  0.68050693E-04
 -0.43996860E-06 -0.43996860E-06  0.13527691E-05  0.13406008E-05 -0.58430991E-05
 -0.58430991E-05 -0.22492784E-05 -0.22492784E-05 -0.14773160E-05  0.26931065E-05
  0.26931065E-05 -0.61403366E-05 -0.10762696E-04  0.52064701E-05  0.52064701E-05

  0.34145845E-18  0.58930848E-16 -0.23965170E-06  0.49862754E-07  0.49862754E-07
  0.19344257E-07  0.21087072E-07  0.16436414E-16  0.12092359E-15  0.83362910E-06
  0.83362910E-06 -0.22268573E-06  0.20764661E-06  0.20764661E-06 -0.22392034E-06
 -0.17382243E-06  0.10875080E-06  0.10875080E-06  0.88186046E-17  0.72680810E-17
  0.10558720E-06 -0.97137893E-07 -0.97137893E-07  0.58908025E-07 -0.79565902E-07
 -0.29954894E-17 -0.80649833E-18  0.24532825E-05  0.24532825E-05 -0.43996860E-06
  0.17445613E-03  0.17445613E-03 -0.69424303E-04 -0.99349242E-04 -0.32586575E-05
 -0.32586575E-05  0.67947455E-05  0.67947455E-05  0.10364339E-04 -0.59699497E-05
 -0.59699497E-05  0.22227791E-04  0.30505645E-04 -0.10247358E-04 -0.10247358E-04

  0.34145845E-18  0.58930848E-16 -0.23965170E-06  0.49862754E-07  0.49862754E-07
  0.19344257E-07  0.21087072E-07  0.16436414E-16  0.12092359E-15  0.83362910E-06
  0.83362910E-06 -0.22268573E-06  0.20764661E-06  0.20764661E-06 -0.22392034E-06
 -0.17382243E-06  0.10875080E-06  0.10875080E-06  0.88186046E-17  0.72680810E-17
  0.10558720E-06 -0.97137893E-07 -0.97137893E-07  0.58908025E-07 -0.79565902E-07
 -0.29954894E-17 -0.80649833E-18  0.24532825E-05  0.24532825E-05 -0.43996860E-06
  0.17445613E-03  0.17445613E-03 -0.69424303E-04 -0.99349242E-04 -0.32586575E-05
 -0.32586575E-05  0.67947455E-05  0.67947455E-05  0.10364339E-04 -0.59699497E-05
 -0.59699497E-05  0.22227791E-04  0.30505645E-04 -0.10247358E-04 -0.10247358E-04

 -0.12004671E-18 -0.34559198E-16 -0.52230823E-06  0.10399205E-06  0.10399205E-06
 -0.10954594E-06 -0.16451271E-06 -0.92644455E-17 -0.57790046E-16  0.68630145E-06
  0.68630145E-06  0.14203819E-05 -0.13055601E-06 -0.13055601E-06  0.44597492E-06
 -0.12236471E-06  0.18419874E-06  0.18419874E-06 -0.59307338E-17 -0.47961731E-17
  0.53523770E-06  0.23059280E-06  0.23059280E-06  0.40496886E-07  0.12334008E-07
  0.32895450E-17  0.19849795E-17  0.49896226E-05  0.49896226E-05  0.13527691E-05
 -0.69424303E-04 -0.69424303E-04  0.17224383E-03  0.25997818E-04 -0.24846161E-05
 -0.24846161E-05 -0.25035944E-04 -0.25035944E-04 -0.13523760E-05  0.74725672E-05
  0.74725672E-05 -0.60321488E-04 -0.49240134E-05 -0.12749413E-04 -0.12749413E-04

 -0.47312753E-18 -0.40615533E-16  0.11513830E-06 -0.10382375E-06 -0.10382375E-06
  0.30530682E-07 -0.51825587E-06 -0.25653083E-16 -0.11718605E-15 -0.44205788E-06
 -0.44205788E-06 -0.79513284E-06  0.31764646E-06  0.31764646E-06 -0.84482325E-08
 -0.44269369E-06 -0.36242872E-06 -0.36242872E-06 -0.61673622E-17 -0.44325284E-17
 -0.47359854E-07 -0.12753477E-06 -0.12753477E-06  0.52022403E-07  0.18465246E-06
  0.28863172E-17  0.10385557E-17 -0.69740107E-05 -0.69740107E-05  0.13406008E-05
 -0.99349242E-04 -0.99349242E-04  0.25997818E-04  0.24818553E-03 -0.19282135E-05
 -0.19282135E-05  0.42958138E-06  0.42958138E-06 -0.10834119E-04  0.13563856E-04
  0.13563856E-04 -0.19946750E-04  0.26243676E-04  0.10917856E-04  0.10917856E-04

  0.17412508E-18  0.24363506E-17 -0.27118512E-06 -0.15102519E-06 -0.15102519E-06
 -0.10109216E-06  0.22793192E-06  0.31294572E-17  0.14052455E-16 -0.37391019E-06
 -0.37391019E-06  0.84228316E-07 -0.15364725E-06 -0.15364725E-06  0.76189508E-07
 -0.16620608E-06 -0.86775508E-07 -0.86775508E-07  0.46506434E-18  0.49123394E-18
 -0.27385793E-07 -0.12223703E-06 -0.12223703E-06 -0.12208985E-06 -0.28787411E-07
 -0.66939722E-18 -0.64866475E-18 -0.64169875E-05 -0.64169875E-05 -0.58430991E-05
 -0.32586575E-05 -0.32586575E-05 -0.24846161E-05 -0.19282135E-05  0.65018235E-04
  0.65018235E-04 -0.35529778E-05 -0.35529778E-05 -0.12625164E-04  0.14684393E-05
  0.14684393E-05  0.10437075E-05  0.70434098E-05 -0.64777530E-05 -0.64777530E-05

  0.17412508E-18  0.24363506E-17 -0.27118512E-06 -0.15102519E-06 -0.15102519E-06
 -0.10109216E-06  0.22793192E-06  0.31294572E-17  0.14052455E-16 -0.37391019E-06
 -0.37391019E-06  0.84228316E-07 -0.15364725E-06 -0.15364725E-06  0.76189508E-07
 -0.16620608E-06 -0.86775508E-07 -0.86775508E-07  0.46506434E-18  0.49123394E-18
 -0.27385793E-07 -0.12223703E-06 -0.12223703E-06 -0.12208985E-06 -0.28787411E-07
 -0.66939722E-18 -0.64866475E-18 -0.64169875E-05 -0.64169875E-05 -0.58430991E-05
 -0.32586575E-05 -0.32586575E-05 -0.24846161E-05 -0.19282135E-05  0.65018235E-04
  0.65018235E-04 -0.35529778E-05 -0.35529778E-05 -0.12625164E-04  0.14684393E-05
  0.14684393E-05  0.10437075E-05  0.70434098E-05 -0.64777530E-05 -0.64777530E-05

 -0.12987839E-18  0.45731645E-17 -0.24102995E-06  0.10452700E-06  0.10452700E-06
  0.93061185E-09  0.31802341E-06 -0.22091717E-17 -0.43090414E-17 -0.97430210E-06
 -0.97430210E-06  0.54875731E-07 -0.13784645E-06 -0.13784645E-06 -0.60559628E-07
  0.35887115E-06  0.26758095E-06  0.26758095E-06  0.64631236E-18  0.77393031E-19
  0.31803482E-07 -0.13538716E-06 -0.13538716E-06  0.43576345E-07  0.15797447E-06
 -0.63470467E-18 -0.51430168E-18  0.68351060E-05  0.68351060E-05 -0.22492784E-05
  0.67947455E-05  0.67947455E-05 -0.25035944E-04  0.42958138E-06 -0.35529778E-05
 -0.35529778E-05  0.70874549E-04  0.70874549E-04 -0.19472778E-06 -0.20404604E-06
 -0.20404604E-06  0.15367322E-04 -0.33657743E-05  0.12464874E-05  0.12464874E-05

 -0.12987839E-18  0.45731645E-17 -0.24102995E-06  0.10452700E-06  0.10452700E-06
  0.93061185E-09  0.31802341E-06 -0.22091717E-17 -0.43090414E-17 -0.97430210E-06
 -0.97430210E-06  0.54875731E-07 -0.13784645E-06 -0.13784645E-06 -0.60559628E-07
  0.35887115E-06  0.26758095E-06  0.26758095E-06  0.64631236E-18  0.77393031E-19
  0.31803482E-07 -0.13538716E-06 -0.13538716E-06  0.43576345E-07  0.15797447E-06
 -0.63470467E-18 -0.51430168E-18  0.68351060E-05  0.68351060E-05 -0.22492784E-05
  0.67947455E-05  0.67947455E-05 -0.25035944E-04  0.42958138E-06 -0.35529778E-05
 -0.35529778E-05  0.70874549E-04  0.70874549E-04 -0.19472778E-06 -0.20404604E-06
 -0.20404604E-06  0.15367322E-04 -0.33657743E-05  0.12464874E-05  0.12464874E-05

  0.31612833E-18  0.16816010E-16  0.44342830E-06 -0.57618413E-06 -0.57618413E-06
 -0.19858071E-06 -0.46720391E-06  0.63067093E-17  0.45909887E-16  0.34895392E-06
  0.34895392E-06  0.20064850E-05  0.32428787E-06  0.32428787E-06 -0.42437811E-06
 -0.54822015E-06  0.11590993E-06  0.11590993E-06  0.29719616E-18  0.23076100E-17
  0.38862591E-06 -0.24616232E-06 -0.24616232E-06 -0.53503375E-07  0.25665892E-06
 -0.28261253E-17 -0.16501731E-17  0.65162973E-05  0.65162973E-05 -0.14773160E-05
  0.10364339E-04  0.10364339E-04 -0.13523760E-05 -0.10834119E-04 -0.12625164E-04
 -0.12625164E-04 -0.19472778E-06 -0.19472778E-06  0.17390575E-03 -0.22491439E-04
 -0.22491439E-04  0.15016402E-04  0.32525755E-04 -0.73544238E-06 -0.73544238E-06

 -0.32017564E-18 -0.33641867E-16 -0.19910293E-06  0.57339225E-06  0.57339225E-06
 -0.45654334E-07  0.19605168E-06 -0.18165507E-17 -0.71904952E-16 -0.24598787E-06
 -0.24598787E-06 -0.10797846E-05 -0.61825365E-06 -0.61825365E-06  0.43016331E-06
  0.45248560E-06  0.33793068E-08  0.33793068E-08 -0.38341046E-18 -0.31766726E-17
  0.25654993E-06  0.13225824E-06  0.13225824E-06  0.59501372E-07  0.72099530E-07
  0.42141046E-17  0.24543546E-17 -0.32574789E-05 -0.32574789E-05  0.26931065E-05
 -0.59699497E-05 -0.59699497E-05  0.74725672E-05  0.13563856E-04  0.14684393E-05
  0.14684393E-05 -0.20404604E-06 -0.20404604E-06 -0.22491439E-04  0.93916559E-04
  0.93916559E-04 -0.51366495E-04 -0.36661319E-04  0.66706023E-05  0.66706023E-05

 -0.32017564E-18 -0.33641867E-16 -0.19910293E-06  0.57339225E-06  0.57339225E-06
 -0.45654334E-07  0.19605168E-06 -0.18165507E-17 -0.71904952E-16 -0.24598787E-06
 -0.24598787E-06 -0.10797846E-05 -0.61825365E-06 -0.61825365E-06  0.43016331E-06
  0.45248560E-06  0.33793068E-08  0.33793068E-08 -0.38341046E-18 -0.31766726E-17
  0.25654993E-06  0.13225824E-06  0.13225824E-06  0.59501372E-07  0.72099530E-07
  0.42141046E-17  0.24543546E-17 -0.32574789E-05 -0.32574789E-05  0.26931065E-05
 -0.59699497E-05 -0.59699497E-05  0.74725672E-05  0.13563856E-04  0.14684393E-05
  0.14684393E-05 -0.20404604E-06 -0.20404604E-06 -0.22491439E-04  0.93916559E-04
  0.93916559E-04 -0.51366495E-04 -0.36661319E-04  0.66706023E-05  0.66706023E-05

  0.77686440E-18  0.27208186E-16  0.15605714E-05 -0.41509018E-06 -0.41509018E-06
 -0.67490168E-07 -0.12179060E-07  0.24099953E-16  0.90629072E-16 -0.34739433E-06
 -0.34739433E-06  0.19043234E-06  0.38442853E-06  0.38442853E-06 -0.27797984E-06
 -0.38179571E-06 -0.26527147E-08 -0.26527147E-08  0.27751817E-17  0.63231192E-17
  0.16627121E-06 -0.27413879E-06 -0.27413879E-06 -0.22078559E-06 -0.92158083E-07
 -0.70938596E-17 -0.48705398E-17  0.64944426E-06  0.64944426E-06 -0.61403366E-05
  0.22227791E-04  0.22227791E-04 -0.60321488E-04 -0.19946750E-04  0.10437075E-05
  0.10437075E-05  0.15367322E-04  0.15367322E-04  0.15016402E-04 -0.51366495E-04
 -0.51366495E-04  0.21445161E-03  0.14853727E-04  0.99684823E-05  0.99684823E-05

  0.87161670E-18  0.72765181E-16 -0.13345161E-06  0.50661519E-07  0.50661519E-07
 -0.12403738E-06 -0.18031357E-05  0.57878388E-18  0.12506604E-15 -0.79967622E-07
 -0.79967622E-07  0.34222406E-06  0.10600567E-05  0.10600567E-05 -0.13411594E-06
 -0.28834100E-05 -0.64027675E-07 -0.64027675E-07 -0.35556630E-18  0.64950523E-17
  0.25668001E-06 -0.16731628E-06 -0.16731628E-06  0.13812997E-07 -0.13688714E-06
 -0.44326956E-17 -0.10610200E-17  0.68346395E-05  0.68346395E-05 -0.10762696E-04
  0.30505645E-04  0.30505645E-04 -0.49240134E-05  0.26243676E-04  0.70434098E-05
  0.70434098E-05 -0.33657743E-05 -0.33657743E-05  0.32525755E-04 -0.36661319E-04
 -0.36661319E-04  0.14853727E-04  0.31552287E-03  0.70451570E-05  0.70451570E-05

 -0.12265340E-18  0.11016984E-17 -0.14573943E-06  0.31262204E-07  0.31262204E-07
 -0.12172317E-07  0.46395437E-06 -0.22628194E-17 -0.22128302E-16 -0.80244811E-06
 -0.80244811E-06  0.22364428E-06  0.21500947E-06  0.21500947E-06  0.86010546E-08
 -0.33857116E-06  0.37084201E-06  0.37084201E-06  0.17396904E-18 -0.25073229E-19
  0.79390336E-07  0.22932980E-07  0.22932980E-07 -0.15738807E-07 -0.15626973E-06
 -0.61712369E-18 -0.99575931E-18 -0.12010403E-04 -0.12010403E-04  0.52064701E-05
 -0.10247358E-04 -0.10247358E-04 -0.12749413E-04  0.10917856E-04 -0.64777530E-05
 -0.64777530E-05  0.12464874E-05  0.12464874E-05 -0.73544238E-06  0.66706023E-05
  0.66706023E-05  0.99684823E-05  0.70451570E-05  0.10304521E-03  0.10304521E-03

 -0.12265340E-18  0.11016984E-17 -0.14573943E-06  0.31262204E-07  0.31262204E-07
 -0.12172317E-07  0.46395437E-06 -0.22628194E-17 -0.22128302E-16 -0.80244811E-06
 -0.80244811E-06  0.22364428E-06  0.21500947E-06  0.21500947E-06  0.86010546E-08
 -0.33857116E-06  0.37084201E-06  0.37084201E-06  0.17396904E-18 -0.25073229E-19
  0.79390336E-07  0.22932980E-07  0.22932980E-07 -0.15738807E-07 -0.15626973E-06
 -0.61712369E-18 -0.99575931E-18 -0.12010403E-04 -0.12010403E-04  0.52064701E-05
 -0.10247358E-04 -0.10247358E-04 -0.12749413E-04  0.10917856E-04 -0.64777530E-05
 -0.64777530E-05  0.12464874E-05  0.12464874E-05 -0.73544238E-06  0.66706023E-05
  0.66706023E-05  0.99684823E-05  0.70451570E-05  0.10304521E-03  0.10304521E-03
]


# Tonto-specific key and data

#

# NOTE: Cartesian 9Nx9N covariance matrix in BOHR units
# The order of the variables (per atom) is as follows:
# . Elements 1-3: positions: x y x
# . Elements 4-9: 2nd order ADPs:
#      U 11 22 33 12 13 23
# . Elements 10-19: 3rd order ADPs (if refined):
#      U 111 222 333 112 113 122 223 133 233 123
# . Elements 20-34: 4th order ADPs (if refined):
#      U 1112 1113 1222 2223 1333 2333
#        1122 1133 2233 1123 1223 1233

_fragment_covariance_matrix
[
  0.72777171E-32  0.34991237E-30  0.53877745E-20 -0.30842087E-20 -0.30842087E-20
 -0.12259868E-20 -0.26229669E-20  0.16087784E-30  0.96221806E-30  0.14349809E-20
  0.14349809E-20  0.47372539E-20  0.32050014E-20  0.32050014E-20 -0.13461150E-20
 -0.96771742E-20 -0.91441725E-21 -0.91441725E-21 -0.14349809E-20 -0.14349809E-20
  0.47372539E-20  0.32050014E-20  0.32050014E-20 -0.13461150E-20 -0.96771742E-20
  0.91441725E-21  0.91441725E-21  0.20120344E-31  0.50622162E-31  0.29919296E-20
 -0.13585298E-20 -0.13585298E-20 -0.13903281E-20 -0.85224502E-21 -0.43105765E-31
 -0.22170956E-31 -0.83163133E-19 -0.83163133E-19 -0.98340420E-19  0.34145845E-18
  0.34145845E-18 -0.12004671E-18 -0.47312753E-18  0.17412508E-18  0.17412508E-18
  0.83163133E-19  0.83163133E-19 -0.98340420E-19  0.34145845E-18  0.34145845E-18
 -0.12004671E-18 -0.47312753E-18 -0.17412508E-18 -0.17412508E-18 -0.12987839E-18
 -0.12987839E-18  0.31612833E-18 -0.32017564E-18 -0.32017564E-18  0.77686440E-18
  0.87161670E-18 -0.12265340E-18 -0.12265340E-18  0.12987839E-18  0.12987839E-18
  0.31612833E-18 -0.32017564E-18 -0.32017564E-18  0.77686440E-18  0.87161670E-18
  0.12265340E-18  0.12265340E-18
  0.34991237E-30  0.41679779E-28 -0.36563329E-19 -0.11590448E-18 -0.11590448E-18
 -0.16938603E-20 -0.32876987E-18  0.64356288E-29  0.81413568E-28  0.19909804E-18
  0.19909803E-18  0.35437924E-18  0.39843443E-18  0.39843443E-18 -0.21468205E-18
 -0.64374316E-18  0.60406423E-19  0.60406423E-19 -0.19909804E-18 -0.19909803E-18
  0.35437924E-18  0.39843443E-18  0.39843443E-18 -0.21468205E-18 -0.64374316E-18
 -0.60406423E-19 -0.60406423E-19  0.28979065E-29  0.43114699E-29 -0.56213909E-19
 -0.10234059E-18 -0.10234059E-18 -0.31079286E-20 -0.92499383E-19 -0.30923447E-29
 -0.12968722E-29  0.73239256E-17  0.73239256E-17 -0.37941301E-17  0.58930848E-16
  0.58930848E-16 -0.34559198E-16 -0.40615533E-16  0.24363506E-17  0.24363506E-17
 -0.73239256E-17 -0.73239256E-17 -0.37941301E-17  0.58930848E-16  0.58930848E-16
 -0.34559198E-16 -0.40615533E-16 -0.24363506E-17 -0.24363506E-17  0.45731645E-17
  0.45731645E-17  0.16816010E-16 -0.33641867E-16 -0.33641867E-16  0.27208186E-16
  0.72765181E-16  0.11016984E-17  0.11016984E-17 -0.45731645E-17 -0.45731645E-17
  0.16816010E-16 -0.33641867E-16 -0.33641867E-16  0.27208186E-16  0.72765181E-16
 -0.11016984E-17 -0.11016984E-17
  0.53877745E-20 -0.36563329E-19  0.29687235E-06  0.23673676E-08  0.23673676E-08
  0.23546774E-09  0.93681477E-08  0.18216638E-18  0.30465602E-18  0.29218973E-08
  0.29218973E-08 -0.91120744E-08  0.12405287E-07  0.12405287E-07 -0.75926234E-08
 -0.10231275E-07  0.33925382E-09  0.33925382E-09 -0.29218973E-08 -0.29218973E-08
 -0.91120744E-08  0.12405287E-07  0.12405287E-07 -0.75926234E-08 -0.10231275E-07
 -0.33925382E-09 -0.33925382E-09  0.13868003E-20  0.29471928E-19  0.20102260E-08
 -0.20378335E-08 -0.20378335E-08  0.36753544E-08 -0.87386523E-08 -0.38291090E-19
 -0.27938176E-19 -0.11298662E-06 -0.11298662E-06  0.36591837E-06 -0.23965170E-06
 -0.23965170E-06 -0.52230823E-06  0.11513830E-06 -0.27118512E-06 -0.27118512E-06
  0.11298662E-06  0.11298662E-06  0.36591837E-06 -0.23965170E-06 -0.23965170E-06
 -0.52230823E-06  0.11513830E-06  0.27118512E-06  0.27118512E-06 -0.24102995E-06
 -0.24102995E-06  0.44342830E-06 -0.19910293E-06 -0.19910293E-06  0.15605714E-05
 -0.13345161E-06 -0.14573943E-06 -0.14573943E-06  0.24102995E-06  0.24102995E-06
  0.44342830E-06 -0.19910293E-06 -0.19910293E-06  0.15605714E-05 -0.13345161E-06
  0.14573943E-06  0.14573943E-06
 -0.30842087E-20 -0.11590448E-18  0.23673676E-08  0.10103845E-06  0.10103845E-06
 -0.24437793E-07  0.21677550E-07 -0.46286262E-19 -0.38702831E-18  0.17977552E-08
  0.17977552E-08 -0.88823629E-08  0.50436788E-08  0.50436788E-08  0.10868582E-07
 -0.62301151E-08  0.22739104E-09  0.22739104E-09 -0.17977552E-08 -0.17977552E-08
 -0.88823629E-08  0.50436788E-08  0.50436788E-08  0.10868582E-07 -0.62301151E-08
 -0.22739104E-09 -0.22739104E-09 -0.54646713E-20 -0.21417519E-19 -0.26941220E-08
 -0.21374868E-07 -0.21374868E-07  0.14160553E-07 -0.23309942E-07  0.31004876E-19
  0.22364336E-19  0.22250668E-06  0.22250668E-06  0.81017963E-07  0.49862754E-07
  0.49862754E-07  0.10399205E-06 -0.10382375E-06 -0.15102519E-06 -0.15102519E-06
 -0.22250668E-06 -0.22250668E-06  0.81017963E-07  0.49862754E-07  0.49862754E-07
  0.10399205E-06 -0.10382375E-06  0.15102519E-06  0.15102519E-06  0.10452700E-06
  0.10452700E-06 -0.57618413E-06  0.57339225E-06  0.57339225E-06 -0.41509018E-06
  0.50661519E-07  0.31262204E-07  0.31262204E-07 -0.10452700E-06 -0.10452700E-06
 -0.57618413E-06  0.57339225E-06  0.57339225E-06 -0.41509018E-06  0.50661519E-07
 -0.31262204E-07 -0.31262204E-07
 -0.30842087E-20 -0.11590448E-18  0.23673676E-08  0.10103845E-06  0.10103845E-06
 -0.24437793E-07  0.21677550E-07 -0.46286262E-19 -0.38702831E-18  0.17977552E-08
  0.17977552E-08 -0.88823629E-08  0.50436788E-08  0.50436788E-08  0.10868582E-07
 -0.62301151E-08  0.22739104E-09  0.22739104E-09 -0.17977552E-08 -0.17977552E-08
 -0.88823629E-08  0.50436788E-08  0.50436788E-08  0.10868582E-07 -0.62301151E-08
 -0.22739104E-09 -0.22739104E-09 -0.54646714E-20 -0.21417519E-19 -0.26941220E-08
 -0.21374868E-07 -0.21374868E-07  0.14160553E-07 -0.23309942E-07  0.31004876E-19
  0.22364336E-19  0.22250668E-06  0.22250668E-06  0.81017963E-07  0.49862754E-07
  0.49862754E-07  0.10399205E-06 -0.10382375E-06 -0.15102519E-06 -0.15102519E-06
 -0.22250668E-06 -0.22250668E-06  0.81017963E-07  0.49862754E-07  0.49862754E-07
  0.10399205E-06 -0.10382375E-06  0.15102519E-06  0.15102519E-06  0.10452700E-06
  0.10452700E-06 -0.57618413E-06  0.57339225E-06  0.57339225E-06 -0.41509018E-06
  0.50661519E-07  0.31262204E-07  0.31262204E-07 -0.10452700E-06 -0.10452700E-06
 -0.57618413E-06  0.57339225E-06  0.57339225E-06 -0.41509018E-06  0.50661519E-07
 -0.31262204E-07 -0.31262204E-07
 -0.12259868E-20 -0.16938603E-20  0.23546774E-09 -0.24437793E-07 -0.24437793E-07
  0.69550201E-07 -0.28112008E-08 -0.31123131E-19 -0.78657123E-19  0.41888065E-08
  0.41888065E-08 -0.78002746E-09  0.88041560E-08  0.88041560E-08 -0.12894383E-07
 -0.32222101E-08  0.52196085E-09  0.52196085E-09 -0.41888065E-08 -0.41888065E-08
 -0.78002746E-09  0.88041560E-08  0.88041560E-08 -0.12894383E-07 -0.32222101E-08
 -0.52196085E-09 -0.52196085E-09 -0.45204767E-23 -0.44143763E-20 -0.41356153E-08
  0.10865272E-07  0.10865272E-07 -0.11084594E-07  0.15172369E-08  0.46738454E-20
  0.34469558E-20  0.72647388E-07  0.72647388E-07  0.16185552E-06  0.19344257E-07
  0.19344257E-07 -0.10954594E-06  0.30530682E-07 -0.10109216E-06 -0.10109216E-06
 -0.72647388E-07 -0.72647388E-07  0.16185552E-06  0.19344257E-07  0.19344257E-07
 -0.10954594E-06  0.30530682E-07  0.10109216E-06  0.10109216E-06  0.93061185E-09
  0.93061185E-09 -0.19858071E-06 -0.45654334E-07 -0.45654334E-07 -0.67490168E-07
 -0.12403738E-06 -0.12172317E-07 -0.12172317E-07 -0.93061185E-09 -0.93061185E-09
 -0.19858071E-06 -0.45654334E-07 -0.45654334E-07 -0.67490168E-07 -0.12403738E-06
  0.12172317E-07  0.12172317E-07
 -0.26229669E-20 -0.32876987E-18  0.93681477E-08  0.21677550E-07  0.21677550E-07
 -0.28112008E-08  0.26312804E-06  0.38183618E-19 -0.60879367E-18  0.11238379E-07
  0.11238379E-07 -0.10707407E-07  0.44849874E-08  0.44849874E-08 -0.69070455E-09
  0.10407482E-07  0.47711807E-08  0.47711807E-08 -0.11238379E-07 -0.11238379E-07
 -0.10707407E-07  0.44849874E-08  0.44849874E-08 -0.69070455E-09  0.10407482E-07
 -0.47711807E-08 -0.47711807E-08  0.24763046E-19 -0.25331147E-19 -0.13975980E-07
 -0.47421714E-08 -0.47421714E-08  0.19701397E-08 -0.59140596E-07  0.13472829E-19
 -0.50188302E-20 -0.43059726E-06 -0.43059726E-06  0.22471372E-06  0.21087072E-07
  0.21087072E-07 -0.16451271E-06 -0.51825587E-06  0.22793192E-06  0.22793192E-06
  0.43059726E-06  0.43059726E-06  0.22471372E-06  0.21087072E-07  0.21087072E-07
 -0.16451271E-06 -0.51825587E-06 -0.22793192E-06 -0.22793192E-06  0.31802341E-06
  0.31802341E-06 -0.46720391E-06  0.19605168E-06  0.19605168E-06 -0.12179060E-07
 -0.18031357E-05  0.46395437E-06  0.46395437E-06 -0.31802341E-06 -0.31802341E-06
 -0.46720391E-06  0.19605168E-06  0.19605168E-06 -0.12179060E-07 -0.18031357E-05
 -0.46395437E-06 -0.46395437E-06
  0.16087784E-30  0.64356288E-29  0.18216638E-18 -0.46286262E-19 -0.46286262E-19
 -0.31123131E-19  0.38183618E-19  0.62323746E-29  0.22768146E-28  0.31211365E-19
  0.31211365E-19  0.27635689E-19 -0.17955681E-19 -0.17955681E-19 -0.19131052E-19
 -0.38764049E-19 -0.42766687E-20 -0.42766687E-20 -0.31211365E-19 -0.31211365E-19
  0.27635689E-19 -0.17955681E-19 -0.17955681E-19 -0.19131052E-19 -0.38764049E-19
  0.42766687E-20  0.42766687E-20  0.11517556E-29  0.12980437E-29  0.89770910E-19
 -0.25775516E-19 -0.25775516E-19 -0.38522071E-19 -0.76365529E-20 -0.98965818E-30
 -0.57356253E-30 -0.34991982E-17 -0.34991982E-17 -0.16448369E-17  0.16436414E-16
  0.16436414E-16 -0.92644455E-17 -0.25653083E-16  0.31294572E-17  0.31294572E-17
  0.34991982E-17  0.34991982E-17 -0.16448369E-17  0.16436414E-16  0.16436414E-16
 -0.92644455E-17 -0.25653083E-16 -0.31294572E-17 -0.31294572E-17 -0.22091717E-17
 -0.22091717E-17  0.63067093E-17 -0.18165507E-17 -0.18165507E-17  0.24099953E-16
  0.57878388E-18 -0.22628194E-17 -0.22628194E-17  0.22091717E-17  0.22091717E-17
  0.63067093E-17 -0.18165507E-17 -0.18165507E-17  0.24099953E-16  0.57878388E-18
  0.22628194E-17  0.22628194E-17
  0.96221806E-30  0.81413568E-28  0.30465602E-18 -0.38702831E-18 -0.38702831E-18
 -0.78657123E-19 -0.60879367E-18  0.22768146E-28  0.18632803E-27  0.61739273E-18
  0.61739273E-18  0.91974461E-18  0.64680770E-18  0.64680770E-18 -0.40391644E-18
 -0.11880920E-17  0.13009483E-19  0.13009483E-19 -0.61739273E-18 -0.61739273E-18
  0.91974461E-18  0.64680770E-18  0.64680770E-18 -0.40391644E-18 -0.11880920E-17
 -0.13009483E-19 -0.13009483E-19  0.63453828E-29  0.95698986E-29  0.94940714E-19
 -0.22193659E-18 -0.22193659E-18 -0.95287369E-19 -0.15253382E-18 -0.71945796E-29
 -0.32675169E-29  0.69650536E-17  0.69650536E-17 -0.13082567E-16  0.12092359E-15
  0.12092359E-15 -0.57790046E-16 -0.11718605E-15  0.14052455E-16  0.14052455E-16
 -0.69650536E-17 -0.69650536E-17 -0.13082567E-16  0.12092359E-15  0.12092359E-15
 -0.57790046E-16 -0.11718605E-15 -0.14052455E-16 -0.14052455E-16 -0.43090414E-17
 -0.43090414E-17  0.45909887E-16 -0.71904952E-16 -0.71904952E-16  0.90629072E-16
  0.12506604E-15 -0.22128302E-16 -0.22128302E-16  0.43090414E-17  0.43090414E-17
  0.45909887E-16 -0.71904952E-16 -0.71904952E-16  0.90629072E-16  0.12506604E-15
  0.22128302E-16  0.22128302E-16
  0.14349809E-20  0.19909804E-18  0.29218973E-08  0.17977552E-08  0.17977552E-08
  0.41888065E-08  0.11238379E-07  0.31211365E-19  0.61739273E-18  0.22349427E-06
  0.22349427E-06  0.13663138E-07  0.97534484E-08  0.97534484E-08 -0.20854112E-08
 -0.35023193E-08  0.78979630E-09  0.78979630E-09 -0.22349427E-06 -0.22349427E-06
  0.13663138E-07  0.97534484E-08  0.97534484E-08 -0.20854112E-08 -0.35023193E-08
 -0.78979630E-09 -0.78979630E-09  0.10245911E-19  0.16217404E-19 -0.21198509E-07
  0.35840365E-08  0.35840365E-08  0.10262283E-08  0.67303595E-08  0.96017877E-20
  0.19644397E-19  0.57813444E-06  0.57813444E-06  0.58032088E-06  0.83362910E-06
  0.83362910E-06  0.68630145E-06 -0.44205788E-06 -0.37391019E-06 -0.37391019E-06
 -0.57813444E-06 -0.57813444E-06  0.58032088E-06  0.83362910E-06  0.83362910E-06
  0.68630145E-06 -0.44205788E-06  0.37391019E-06  0.37391019E-06 -0.97430210E-06
 -0.97430210E-06  0.34895392E-06 -0.24598787E-06 -0.24598787E-06 -0.34739433E-06
 -0.79967622E-07 -0.80244811E-06 -0.80244811E-06  0.97430210E-06  0.97430210E-06
  0.34895392E-06 -0.24598787E-06 -0.24598787E-06 -0.34739433E-06 -0.79967622E-07
  0.80244811E-06  0.80244811E-06
  0.14349809E-20  0.19909803E-18  0.29218973E-08  0.17977552E-08  0.17977552E-08
  0.41888065E-08  0.11238379E-07  0.31211365E-19  0.61739273E-18  0.22349427E-06
  0.22349427E-06  0.13663138E-07  0.97534484E-08  0.97534484E-08 -0.20854112E-08
 -0.35023193E-08  0.78979630E-09  0.78979630E-09 -0.22349427E-06 -0.22349427E-06
  0.13663138E-07  0.97534484E-08  0.97534484E-08 -0.20854112E-08 -0.35023193E-08
 -0.78979630E-09 -0.78979630E-09  0.10245911E-19  0.16217404E-19 -0.21198509E-07
  0.35840365E-08  0.35840365E-08  0.10262283E-08  0.67303595E-08  0.96017877E-20
  0.19644397E-19  0.57813444E-06  0.57813444E-06  0.58032088E-06  0.83362910E-06
  0.83362910E-06  0.68630145E-06 -0.44205788E-06 -0.37391019E-06 -0.37391019E-06
 -0.57813444E-06 -0.57813444E-06  0.58032088E-06  0.83362910E-06  0.83362910E-06
  0.68630145E-06 -0.44205788E-06  0.37391019E-06  0.37391019E-06 -0.97430210E-06
 -0.97430210E-06  0.34895392E-06 -0.24598787E-06 -0.24598787E-06 -0.34739433E-06
 -0.79967622E-07 -0.80244811E-06 -0.80244811E-06  0.97430210E-06  0.97430210E-06
  0.34895392E-06 -0.24598787E-06 -0.24598787E-06 -0.34739433E-06 -0.79967622E-07
  0.80244811E-06  0.80244811E-06
  0.47372539E-20  0.35437924E-18 -0.91120744E-08 -0.88823629E-08 -0.88823629E-08
 -0.78002746E-09 -0.10707407E-07  0.27635689E-19  0.91974461E-18  0.13663138E-07
  0.13663138E-07  0.35057429E-06  0.48735506E-09  0.48735506E-09 -0.96460056E-08
 -0.36882969E-08  0.43187216E-08  0.43187216E-08 -0.13663138E-07 -0.13663138E-07
  0.35057429E-06  0.48735506E-09  0.48735506E-09 -0.96460056E-08 -0.36882969E-08
 -0.43187216E-08 -0.43187216E-08 -0.31569333E-19  0.16408382E-19 -0.30624759E-07
 -0.67191755E-08 -0.67191755E-08  0.63902550E-08 -0.40231170E-08 -0.53066266E-19
 -0.33413249E-19  0.75007920E-06  0.75007920E-06 -0.96224990E-06 -0.22268573E-06
 -0.22268573E-06  0.14203819E-05 -0.79513284E-06  0.84228316E-07  0.84228316E-07
 -0.75007920E-06 -0.75007920E-06 -0.96224990E-06 -0.22268573E-06 -0.22268573E-06
  0.14203819E-05 -0.79513284E-06 -0.84228316E-07 -0.84228316E-07  0.54875731E-07
  0.54875731E-07  0.20064850E-05 -0.10797846E-05 -0.10797846E-05  0.19043234E-06
  0.34222406E-06  0.22364428E-06  0.22364428E-06 -0.54875731E-07 -0.54875731E-07
  0.20064850E-05 -0.10797846E-05 -0.10797846E-05  0.19043234E-06  0.34222406E-06
 -0.22364428E-06 -0.22364428E-06
  0.32050014E-20  0.39843443E-18  0.12405287E-07  0.50436788E-08  0.50436788E-08
  0.88041560E-08  0.44849874E-08 -0.17955681E-19  0.64680770E-18  0.97534484E-08
  0.97534484E-08  0.48735506E-09  0.14525861E-06  0.14525861E-06 -0.27386043E-07
 -0.12587110E-06  0.41166774E-09  0.41166774E-09 -0.97534484E-08 -0.97534484E-08
  0.48735506E-09  0.14525861E-06  0.14525861E-06 -0.27386043E-07 -0.12587110E-06
 -0.41166774E-09 -0.41166774E-09  0.16453740E-20  0.37087427E-19 -0.63070995E-08
  0.59222293E-08  0.59222293E-08  0.44555259E-08  0.66855945E-09 -0.34763897E-19
 -0.16521015E-19  0.12788147E-06  0.12788147E-06  0.23597892E-06  0.20764661E-06
  0.20764661E-06 -0.13055601E-06  0.31764646E-06 -0.15364725E-06 -0.15364725E-06
 -0.12788147E-06 -0.12788147E-06  0.23597892E-06  0.20764661E-06  0.20764661E-06
 -0.13055601E-06  0.31764646E-06  0.15364725E-06  0.15364725E-06 -0.13784645E-06
 -0.13784645E-06  0.32428787E-06 -0.61825365E-06 -0.61825365E-06  0.38442853E-06
  0.10600567E-05  0.21500947E-06  0.21500947E-06  0.13784645E-06  0.13784645E-06
  0.32428787E-06 -0.61825365E-06 -0.61825365E-06  0.38442853E-06  0.10600567E-05
 -0.21500947E-06 -0.21500947E-06
  0.32050014E-20  0.39843443E-18  0.12405287E-07  0.50436788E-08  0.50436788E-08
  0.88041560E-08  0.44849874E-08 -0.17955681E-19  0.64680770E-18  0.97534484E-08
  0.97534484E-08  0.48735506E-09  0.14525861E-06  0.14525861E-06 -0.27386043E-07
 -0.12587110E-06  0.41166774E-09  0.41166774E-09 -0.97534484E-08 -0.97534484E-08
  0.48735506E-09  0.14525861E-06  0.14525861E-06 -0.27386043E-07 -0.12587110E-06
 -0.41166774E-09 -0.41166774E-09  0.16453740E-20  0.37087427E-19 -0.63070995E-08
  0.59222293E-08  0.59222293E-08  0.44555259E-08  0.66855945E-09 -0.34763897E-19
 -0.16521015E-19  0.12788147E-06  0.12788147E-06  0.23597892E-06  0.20764661E-06
  0.20764661E-06 -0.13055601E-06  0.31764646E-06 -0.15364725E-06 -0.15364725E-06
 -0.12788147E-06 -0.12788147E-06  0.23597892E-06  0.20764661E-06  0.20764661E-06
 -0.13055601E-06  0.31764646E-06  0.15364725E-06  0.15364725E-06 -0.13784645E-06
 -0.13784645E-06  0.32428787E-06 -0.61825365E-06 -0.61825365E-06  0.38442853E-06
  0.10600567E-05  0.21500947E-06  0.21500947E-06  0.13784645E-06  0.13784645E-06
  0.32428787E-06 -0.61825365E-06 -0.61825365E-06  0.38442853E-06  0.10600567E-05
 -0.21500947E-06 -0.21500947E-06
 -0.13461150E-20 -0.21468205E-18 -0.75926234E-08  0.10868582E-07  0.10868582E-07
 -0.12894383E-07 -0.69070455E-09 -0.19131052E-19 -0.40391644E-18 -0.20854112E-08
 -0.20854112E-08 -0.96460056E-08 -0.27386043E-07 -0.27386043E-07  0.80436958E-07
  0.10035280E-07  0.10469005E-08  0.10469005E-08  0.20854112E-08  0.20854112E-08
 -0.96460056E-08 -0.27386043E-07 -0.27386043E-07  0.80436958E-07  0.10035280E-07
 -0.10469005E-08 -0.10469005E-08 -0.15917995E-19 -0.24732617E-19  0.11572042E-07
  0.32100656E-08  0.32100656E-08  0.37550665E-08 -0.23629699E-08  0.25241158E-19
  0.14829629E-19  0.52834646E-07  0.52834646E-07 -0.17905401E-06 -0.22392034E-06
 -0.22392034E-06  0.44597492E-06 -0.84482325E-08  0.76189508E-07  0.76189508E-07
 -0.52834646E-07 -0.52834646E-07 -0.17905401E-06 -0.22392034E-06 -0.22392034E-06
  0.44597492E-06 -0.84482325E-08 -0.76189508E-07 -0.76189508E-07 -0.60559628E-07
 -0.60559628E-07 -0.42437811E-06  0.43016331E-06  0.43016331E-06 -0.27797984E-06
 -0.13411594E-06  0.86010546E-08  0.86010546E-08  0.60559628E-07  0.60559628E-07
 -0.42437811E-06  0.43016331E-06  0.43016331E-06 -0.27797984E-06 -0.13411594E-06
 -0.86010546E-08 -0.86010546E-08
 -0.96771742E-20 -0.64374316E-18 -0.10231275E-07 -0.62301151E-08 -0.62301151E-08
 -0.32222101E-08  0.10407482E-07 -0.38764049E-19 -0.11880920E-17 -0.35023193E-08
 -0.35023193E-08 -0.36882969E-08 -0.12587110E-06 -0.12587110E-06  0.10035280E-07
  0.26166458E-06  0.11772674E-08  0.11772674E-08  0.35023193E-08  0.35023193E-08
 -0.36882969E-08 -0.12587110E-06 -0.12587110E-06  0.10035280E-07  0.26166458E-06
 -0.11772674E-08 -0.11772674E-08  0.61974612E-20 -0.66481224E-19 -0.33569585E-09
 -0.85136397E-08 -0.85136397E-08 -0.10887274E-08 -0.47861128E-09  0.50963572E-19
  0.19636002E-19  0.10647795E-06  0.10647795E-06  0.67810052E-07 -0.17382243E-06
 -0.17382243E-06 -0.12236471E-06 -0.44269369E-06 -0.16620608E-06 -0.16620608E-06
 -0.10647795E-06 -0.10647795E-06  0.67810052E-07 -0.17382243E-06 -0.17382243E-06
 -0.12236471E-06 -0.44269369E-06  0.16620608E-06  0.16620608E-06  0.35887115E-06
  0.35887115E-06 -0.54822015E-06  0.45248560E-06  0.45248560E-06 -0.38179571E-06
 -0.28834100E-05 -0.33857116E-06 -0.33857116E-06 -0.35887115E-06 -0.35887115E-06
 -0.54822015E-06  0.45248560E-06  0.45248560E-06 -0.38179571E-06 -0.28834100E-05
  0.33857116E-06  0.33857116E-06
 -0.91441725E-21  0.60406423E-19  0.33925382E-09  0.22739104E-09  0.22739104E-09
  0.52196085E-09  0.47711807E-08 -0.42766687E-20  0.13009483E-19  0.78979630E-09
  0.78979630E-09  0.43187216E-08  0.41166774E-09  0.41166774E-09  0.10469005E-08
  0.11772674E-08  0.57785475E-07  0.57785475E-07 -0.78979630E-09 -0.78979630E-09
  0.43187216E-08  0.41166774E-09  0.41166774E-09  0.10469005E-08  0.11772674E-08
 -0.57785475E-07 -0.57785475E-07  0.21383566E-20 -0.17626682E-20 -0.10360784E-07
  0.23372334E-08  0.23372334E-08  0.37918789E-09 -0.15078022E-08 -0.34591359E-20
 -0.30084256E-20  0.19293942E-06  0.19293942E-06  0.96637094E-07  0.10875080E-06
  0.10875080E-06  0.18419874E-06 -0.36242872E-06 -0.86775508E-07 -0.86775508E-07
 -0.19293942E-06 -0.19293942E-06  0.96637094E-07  0.10875080E-06  0.10875080E-06
  0.18419874E-06 -0.36242872E-06  0.86775508E-07  0.86775508E-07  0.26758095E-06
  0.26758095E-06  0.11590993E-06  0.33793068E-08  0.33793068E-08 -0.26527147E-08
 -0.64027675E-07  0.37084201E-06  0.37084201E-06 -0.26758095E-06 -0.26758095E-06
  0.11590993E-06  0.33793068E-08  0.33793068E-08 -0.26527147E-08 -0.64027675E-07
 -0.37084201E-06 -0.37084201E-06
 -0.91441725E-21  0.60406423E-19  0.33925382E-09  0.22739104E-09  0.22739104E-09
  0.52196085E-09  0.47711807E-08 -0.42766687E-20  0.13009483E-19  0.78979630E-09
  0.78979630E-09  0.43187216E-08  0.41166774E-09  0.41166774E-09  0.10469005E-08
  0.11772674E-08  0.57785475E-07  0.57785475E-07 -0.78979630E-09 -0.78979630E-09
  0.43187216E-08  0.41166774E-09  0.41166774E-09  0.10469005E-08  0.11772674E-08
 -0.57785475E-07 -0.57785475E-07  0.21383566E-20 -0.17626682E-20 -0.10360784E-07
  0.23372334E-08  0.23372334E-08  0.37918789E-09 -0.15078022E-08 -0.34591359E-20
 -0.30084256E-20  0.19293942E-06  0.19293942E-06  0.96637094E-07  0.10875080E-06
  0.10875080E-06  0.18419874E-06 -0.36242872E-06 -0.86775508E-07 -0.86775508E-07
 -0.19293942E-06 -0.19293942E-06  0.96637094E-07  0.10875080E-06  0.10875080E-06
  0.18419874E-06 -0.36242872E-06  0.86775508E-07  0.86775508E-07  0.26758095E-06
  0.26758095E-06  0.11590993E-06  0.33793068E-08  0.33793068E-08 -0.26527147E-08
 -0.64027675E-07  0.37084201E-06  0.37084201E-06 -0.26758095E-06 -0.26758095E-06
  0.11590993E-06  0.33793068E-08  0.33793068E-08 -0.26527147E-08 -0.64027675E-07
 -0.37084201E-06 -0.37084201E-06
 -0.14349809E-20 -0.19909804E-18 -0.29218973E-08 -0.17977552E-08 -0.17977552E-08
 -0.41888065E-08 -0.11238379E-07 -0.31211365E-19 -0.61739273E-18 -0.22349427E-06
 -0.22349427E-06 -0.13663138E-07 -0.97534484E-08 -0.97534484E-08  0.20854112E-08
  0.35023193E-08 -0.78979630E-09 -0.78979630E-09  0.22349427E-06  0.22349427E-06
 -0.13663138E-07 -0.97534484E-08 -0.97534484E-08  0.20854112E-08  0.35023193E-08
  0.78979630E-09  0.78979630E-09 -0.10245911E-19 -0.16217404E-19  0.21198509E-07
 -0.35840365E-08 -0.35840365E-08 -0.10262283E-08 -0.67303595E-08 -0.96017877E-20
 -0.19644397E-19 -0.57813444E-06 -0.57813444E-06 -0.58032088E-06 -0.83362910E-06
 -0.83362910E-06 -0.68630145E-06  0.44205788E-06  0.37391019E-06  0.37391019E-06
  0.57813444E-06  0.57813444E-06 -0.58032088E-06 -0.83362910E-06 -0.83362910E-06
 -0.68630145E-06  0.44205788E-06 -0.37391019E-06 -0.37391019E-06  0.97430210E-06
  0.97430210E-06 -0.34895392E-06  0.24598787E-06  0.24598787E-06  0.34739433E-06
  0.79967622E-07  0.80244811E-06  0.80244811E-06 -0.97430210E-06 -0.97430210E-06
 -0.34895392E-06  0.24598787E-06  0.24598787E-06  0.34739433E-06  0.79967622E-07
 -0.80244811E-06 -0.80244811E-06
 -0.14349809E-20 -0.19909803E-18 -0.29218973E-08 -0.17977552E-08 -0.17977552E-08
 -0.41888065E-08 -0.11238379E-07 -0.31211365E-19 -0.61739273E-18 -0.22349427E-06
 -0.22349427E-06 -0.13663138E-07 -0.97534484E-08 -0.97534484E-08  0.20854112E-08
  0.35023193E-08 -0.78979630E-09 -0.78979630E-09  0.22349427E-06  0.22349427E-06
 -0.13663138E-07 -0.97534484E-08 -0.97534484E-08  0.20854112E-08  0.35023193E-08
  0.78979630E-09  0.78979630E-09 -0.10245911E-19 -0.16217404E-19  0.21198509E-07
 -0.35840365E-08 -0.35840365E-08 -0.10262283E-08 -0.67303595E-08 -0.96017877E-20
 -0.19644397E-19 -0.57813444E-06 -0.57813444E-06 -0.58032088E-06 -0.83362910E-06
 -0.83362910E-06 -0.68630145E-06  0.44205788E-06  0.37391019E-06  0.37391019E-06
  0.57813444E-06  0.57813444E-06 -0.58032088E-06 -0.83362910E-06 -0.83362910E-06
 -0.68630145E-06  0.44205788E-06 -0.37391019E-06 -0.37391019E-06  0.97430210E-06
  0.97430210E-06 -0.34895392E-06  0.24598787E-06  0.24598787E-06  0.34739433E-06
  0.79967622E-07  0.80244811E-06  0.80244811E-06 -0.97430210E-06 -0.97430210E-06
 -0.34895392E-06  0.24598787E-06  0.24598787E-06  0.34739433E-06  0.79967622E-07
 -0.80244811E-06 -0.80244811E-06
  0.47372539E-20  0.35437924E-18 -0.91120744E-08 -0.88823629E-08 -0.88823629E-08
 -0.78002746E-09 -0.10707407E-07  0.27635689E-19  0.91974461E-18  0.13663138E-07
  0.13663138E-07  0.35057429E-06  0.48735506E-09  0.48735506E-09 -0.96460056E-08
 -0.36882969E-08  0.43187216E-08  0.43187216E-08 -0.13663138E-07 -0.13663138E-07
  0.35057429E-06  0.48735506E-09  0.48735506E-09 -0.96460056E-08 -0.36882969E-08
 -0.43187216E-08 -0.43187216E-08 -0.31569333E-19  0.16408382E-19 -0.30624759E-07
 -0.67191755E-08 -0.67191755E-08  0.63902550E-08 -0.40231170E-08 -0.53066266E-19
 -0.33413249E-19  0.75007920E-06  0.75007920E-06 -0.96224990E-06 -0.22268573E-06
 -0.22268573E-06  0.14203819E-05 -0.79513284E-06  0.84228316E-07  0.84228316E-07
 -0.75007920E-06 -0.75007920E-06 -0.96224990E-06 -0.22268573E-06 -0.22268573E-06
  0.14203819E-05 -0.79513284E-06 -0.84228316E-07 -0.84228316E-07  0.54875731E-07
  0.54875731E-07  0.20064850E-05 -0.10797846E-05 -0.10797846E-05  0.19043234E-06
  0.34222406E-06  0.22364428E-06  0.22364428E-06 -0.54875731E-07 -0.54875731E-07
  0.20064850E-05 -0.10797846E-05 -0.10797846E-05  0.19043234E-06  0.34222406E-06
 -0.22364428E-06 -0.22364428E-06
  0.32050014E-20  0.39843443E-18  0.12405287E-07  0.50436788E-08  0.50436788E-08
  0.88041560E-08  0.44849874E-08 -0.17955681E-19  0.64680770E-18  0.97534484E-08
  0.97534484E-08  0.48735506E-09  0.14525861E-06  0.14525861E-06 -0.27386043E-07
 -0.12587110E-06  0.41166774E-09  0.41166774E-09 -0.97534484E-08 -0.97534484E-08
  0.48735506E-09  0.14525861E-06  0.14525861E-06 -0.27386043E-07 -0.12587110E-06
 -0.41166774E-09 -0.41166774E-09  0.16453740E-20  0.37087427E-19 -0.63070995E-08
  0.59222293E-08  0.59222293E-08  0.44555259E-08  0.66855945E-09 -0.34763897E-19
 -0.16521015E-19  0.12788147E-06  0.12788147E-06  0.23597892E-06  0.20764661E-06
  0.20764661E-06 -0.13055601E-06  0.31764646E-06 -0.15364725E-06 -0.15364725E-06
 -0.12788147E-06 -0.12788147E-06  0.23597892E-06  0.20764661E-06  0.20764661E-06
 -0.13055601E-06  0.31764646E-06  0.15364725E-06  0.15364725E-06 -0.13784645E-06
 -0.13784645E-06  0.32428787E-06 -0.61825365E-06 -0.61825365E-06  0.38442853E-06
  0.10600567E-05  0.21500947E-06  0.21500947E-06  0.13784645E-06  0.13784645E-06
  0.32428787E-06 -0.61825365E-06 -0.61825365E-06  0.38442853E-06  0.10600567E-05
 -0.21500947E-06 -0.21500947E-06
  0.32050014E-20  0.39843443E-18  0.12405287E-07  0.50436788E-08  0.50436788E-08
  0.88041560E-08  0.44849874E-08 -0.17955681E-19  0.64680770E-18  0.97534484E-08
  0.97534484E-08  0.48735506E-09  0.14525861E-06  0.14525861E-06 -0.27386043E-07
 -0.12587110E-06  0.41166774E-09  0.41166774E-09 -0.97534484E-08 -0.97534484E-08
  0.48735506E-09  0.14525861E-06  0.14525861E-06 -0.27386043E-07 -0.12587110E-06
 -0.41166774E-09 -0.41166774E-09  0.16453740E-20  0.37087427E-19 -0.63070995E-08
  0.59222293E-08  0.59222293E-08  0.44555259E-08  0.66855945E-09 -0.34763897E-19
 -0.16521015E-19  0.12788147E-06  0.12788147E-06  0.23597892E-06  0.20764661E-06
  0.20764661E-06 -0.13055601E-06  0.31764646E-06 -0.15364725E-06 -0.15364725E-06
 -0.12788147E-06 -0.12788147E-06  0.23597892E-06  0.20764661E-06  0.20764661E-06
 -0.13055601E-06  0.31764646E-06  0.15364725E-06  0.15364725E-06 -0.13784645E-06
 -0.13784645E-06  0.32428787E-06 -0.61825365E-06 -0.61825365E-06  0.38442853E-06
  0.10600567E-05  0.21500947E-06  0.21500947E-06  0.13784645E-06  0.13784645E-06
  0.32428787E-06 -0.61825365E-06 -0.61825365E-06  0.38442853E-06  0.10600567E-05
 -0.21500947E-06 -0.21500947E-06
 -0.13461150E-20 -0.21468205E-18 -0.75926234E-08  0.10868582E-07  0.10868582E-07
 -0.12894383E-07 -0.69070455E-09 -0.19131052E-19 -0.40391644E-18 -0.20854112E-08
 -0.20854112E-08 -0.96460056E-08 -0.27386043E-07 -0.27386043E-07  0.80436958E-07
  0.10035280E-07  0.10469005E-08  0.10469005E-08  0.20854112E-08  0.20854112E-08
 -0.96460056E-08 -0.27386043E-07 -0.27386043E-07  0.80436958E-07  0.10035280E-07
 -0.10469005E-08 -0.10469005E-08 -0.15917995E-19 -0.24732617E-19  0.11572042E-07
  0.32100656E-08  0.32100656E-08  0.37550665E-08 -0.23629699E-08  0.25241158E-19
  0.14829629E-19  0.52834646E-07  0.52834646E-07 -0.17905401E-06 -0.22392034E-06
 -0.22392034E-06  0.44597492E-06 -0.84482325E-08  0.76189508E-07  0.76189508E-07
 -0.52834646E-07 -0.52834646E-07 -0.17905401E-06 -0.22392034E-06 -0.22392034E-06
  0.44597492E-06 -0.84482325E-08 -0.76189508E-07 -0.76189508E-07 -0.60559628E-07
 -0.60559628E-07 -0.42437811E-06  0.43016331E-06  0.43016331E-06 -0.27797984E-06
 -0.13411594E-06  0.86010546E-08  0.86010546E-08  0.60559628E-07  0.60559628E-07
 -0.42437811E-06  0.43016331E-06  0.43016331E-06 -0.27797984E-06 -0.13411594E-06
 -0.86010546E-08 -0.86010546E-08
 -0.96771742E-20 -0.64374316E-18 -0.10231275E-07 -0.62301151E-08 -0.62301151E-08
 -0.32222101E-08  0.10407482E-07 -0.38764049E-19 -0.11880920E-17 -0.35023193E-08
 -0.35023193E-08 -0.36882969E-08 -0.12587110E-06 -0.12587110E-06  0.10035280E-07
  0.26166458E-06  0.11772674E-08  0.11772674E-08  0.35023193E-08  0.35023193E-08
 -0.36882969E-08 -0.12587110E-06 -0.12587110E-06  0.10035280E-07  0.26166458E-06
 -0.11772674E-08 -0.11772674E-08  0.61974612E-20 -0.66481224E-19 -0.33569585E-09
 -0.85136397E-08 -0.85136397E-08 -0.10887274E-08 -0.47861128E-09  0.50963572E-19
  0.19636002E-19  0.10647795E-06  0.10647795E-06  0.67810052E-07 -0.17382243E-06
 -0.17382243E-06 -0.12236471E-06 -0.44269369E-06 -0.16620608E-06 -0.16620608E-06
 -0.10647795E-06 -0.10647795E-06  0.67810052E-07 -0.17382243E-06 -0.17382243E-06
 -0.12236471E-06 -0.44269369E-06  0.16620608E-06  0.16620608E-06  0.35887115E-06
  0.35887115E-06 -0.54822015E-06  0.45248560E-06  0.45248560E-06 -0.38179571E-06
 -0.28834100E-05 -0.33857116E-06 -0.33857116E-06 -0.35887115E-06 -0.35887115E-06
 -0.54822015E-06  0.45248560E-06  0.45248560E-06 -0.38179571E-06 -0.28834100E-05
  0.33857116E-06  0.33857116E-06
  0.91441725E-21 -0.60406423E-19 -0.33925382E-09 -0.22739104E-09 -0.22739104E-09
 -0.52196085E-09 -0.47711807E-08  0.42766687E-20 -0.13009483E-19 -0.78979630E-09
 -0.78979630E-09 -0.43187216E-08 -0.41166774E-09 -0.41166774E-09 -0.10469005E-08
 -0.11772674E-08 -0.57785475E-07 -0.57785475E-07  0.78979630E-09  0.78979630E-09
 -0.43187216E-08 -0.41166774E-09 -0.41166774E-09 -0.10469005E-08 -0.11772674E-08
  0.57785475E-07  0.57785475E-07 -0.21383566E-20  0.17626682E-20  0.10360784E-07
 -0.23372334E-08 -0.23372334E-08 -0.37918789E-09  0.15078022E-08  0.34591359E-20
  0.30084256E-20 -0.19293942E-06 -0.19293942E-06 -0.96637094E-07 -0.10875080E-06
 -0.10875080E-06 -0.18419874E-06  0.36242872E-06  0.86775508E-07  0.86775508E-07
  0.19293942E-06  0.19293942E-06 -0.96637094E-07 -0.10875080E-06 -0.10875080E-06
 -0.18419874E-06  0.36242872E-06 -0.86775508E-07 -0.86775508E-07 -0.26758095E-06
 -0.26758095E-06 -0.11590993E-06 -0.33793068E-08 -0.33793068E-08  0.26527147E-08
  0.64027675E-07 -0.37084201E-06 -0.37084201E-06  0.26758095E-06  0.26758095E-06
 -0.11590993E-06 -0.33793068E-08 -0.33793068E-08  0.26527147E-08  0.64027675E-07
  0.37084201E-06  0.37084201E-06
  0.91441725E-21 -0.60406423E-19 -0.33925382E-09 -0.22739104E-09 -0.22739104E-09
 -0.52196085E-09 -0.47711807E-08  0.42766687E-20 -0.13009483E-19 -0.78979630E-09
 -0.78979630E-09 -0.43187216E-08 -0.41166774E-09 -0.41166774E-09 -0.10469005E-08
 -0.11772674E-08 -0.57785475E-07 -0.57785475E-07  0.78979630E-09  0.78979630E-09
 -0.43187216E-08 -0.41166774E-09 -0.41166774E-09 -0.10469005E-08 -0.11772674E-08
  0.57785475E-07  0.57785475E-07 -0.21383566E-20  0.17626682E-20  0.10360784E-07
 -0.23372334E-08 -0.23372334E-08 -0.37918789E-09  0.15078022E-08  0.34591359E-20
  0.30084256E-20 -0.19293942E-06 -0.19293942E-06 -0.96637094E-07 -0.10875080E-06
 -0.10875080E-06 -0.18419874E-06  0.36242872E-06  0.86775508E-07  0.86775508E-07
  0.19293942E-06  0.19293942E-06 -0.96637094E-07 -0.10875080E-06 -0.10875080E-06
 -0.18419874E-06  0.36242872E-06 -0.86775508E-07 -0.86775508E-07 -0.26758095E-06
 -0.26758095E-06 -0.11590993E-06 -0.33793068E-08 -0.33793068E-08  0.26527147E-08
  0.64027675E-07 -0.37084201E-06 -0.37084201E-06  0.26758095E-06  0.26758095E-06
 -0.11590993E-06 -0.33793068E-08 -0.33793068E-08  0.26527147E-08  0.64027675E-07
  0.37084201E-06  0.37084201E-06
  0.20120344E-31  0.28979065E-29  0.13868003E-20 -0.54646713E-20 -0.54646714E-20
 -0.45204767E-23  0.24763046E-19  0.11517556E-29  0.63453828E-29  0.10245911E-19
  0.10245911E-19 -0.31569333E-19  0.16453740E-20  0.16453740E-20 -0.15917995E-19
  0.61974612E-20  0.21383566E-20  0.21383566E-20 -0.10245911E-19 -0.10245911E-19
 -0.31569333E-19  0.16453740E-20  0.16453740E-20 -0.15917995E-19  0.61974612E-20
 -0.21383566E-20 -0.21383566E-20  0.52674722E-30  0.40691499E-30  0.47988250E-20
 -0.87232341E-20 -0.87232341E-20 -0.15902525E-20 -0.24301473E-20 -0.20794439E-30
 -0.97731375E-31 -0.85924795E-18 -0.85924795E-18 -0.27614983E-18  0.88186046E-17
  0.88186046E-17 -0.59307338E-17 -0.61673622E-17  0.46506434E-18  0.46506434E-18
  0.85924795E-18  0.85924795E-18 -0.27614983E-18  0.88186046E-17  0.88186046E-17
 -0.59307338E-17 -0.61673622E-17 -0.46506434E-18 -0.46506434E-18  0.64631236E-18
  0.64631236E-18  0.29719616E-18 -0.38341046E-18 -0.38341046E-18  0.27751817E-17
 -0.35556630E-18  0.17396904E-18  0.17396904E-18 -0.64631236E-18 -0.64631236E-18
  0.29719616E-18 -0.38341046E-18 -0.38341046E-18  0.27751817E-17 -0.35556630E-18
 -0.17396904E-18 -0.17396904E-18
  0.50622162E-31  0.43114699E-29  0.29471928E-19 -0.21417519E-19 -0.21417519E-19
 -0.44143763E-20 -0.25331147E-19  0.12980437E-29  0.95698986E-29  0.16217404E-19
  0.16217404E-19  0.16408382E-19  0.37087427E-19  0.37087427E-19 -0.24732617E-19
 -0.66481224E-19 -0.17626682E-20 -0.17626682E-20 -0.16217404E-19 -0.16217404E-19
  0.16408382E-19  0.37087427E-19  0.37087427E-19 -0.24732617E-19 -0.66481224E-19
  0.17626682E-20  0.17626682E-20  0.40691499E-30  0.56233056E-30  0.11527725E-19
 -0.15787698E-19 -0.15787698E-19 -0.58164874E-20 -0.60036183E-20 -0.40723786E-30
 -0.20162049E-30 -0.38011790E-18 -0.38011790E-18 -0.63499207E-18  0.72680810E-17
  0.72680810E-17 -0.47961731E-17 -0.44325284E-17  0.49123394E-18  0.49123394E-18
  0.38011790E-18  0.38011790E-18 -0.63499207E-18  0.72680810E-17  0.72680810E-17
 -0.47961731E-17 -0.44325284E-17 -0.49123394E-18 -0.49123394E-18  0.77393031E-19
  0.77393031E-19  0.23076100E-17 -0.31766726E-17 -0.31766726E-17  0.63231192E-17
  0.64950523E-17 -0.25073229E-19 -0.25073229E-19 -0.77393031E-19 -0.77393031E-19
  0.23076100E-17 -0.31766726E-17 -0.31766726E-17  0.63231192E-17  0.64950523E-17
  0.25073229E-19  0.25073229E-19
  0.29919296E-20 -0.56213909E-19  0.20102260E-08 -0.26941220E-08 -0.26941220E-08
 -0.41356153E-08 -0.13975980E-07  0.89770910E-19  0.94940714E-19 -0.21198509E-07
 -0.21198509E-07 -0.30624759E-07 -0.63070995E-08 -0.63070995E-08  0.11572042E-07
 -0.33569585E-09 -0.10360784E-07 -0.10360784E-07  0.21198509E-07  0.21198509E-07
 -0.30624759E-07 -0.63070995E-08 -0.63070995E-08  0.11572042E-07 -0.33569585E-09
  0.10360784E-07  0.10360784E-07  0.47988250E-20  0.11527725E-19  0.50870656E-06
 -0.10895549E-09 -0.10895549E-09 -0.32454362E-08  0.20272705E-07 -0.37562867E-20
 -0.27938591E-20 -0.33882545E-06 -0.33882545E-06 -0.55470410E-06  0.10558720E-06
  0.10558720E-06  0.53523770E-06 -0.47359854E-07 -0.27385793E-07 -0.27385793E-07
  0.33882545E-06  0.33882545E-06 -0.55470410E-06  0.10558720E-06  0.10558720E-06
  0.53523770E-06 -0.47359854E-07  0.27385793E-07  0.27385793E-07  0.31803482E-07
  0.31803482E-07  0.38862591E-06  0.25654993E-06  0.25654993E-06  0.16627121E-06
  0.25668001E-06  0.79390336E-07  0.79390336E-07 -0.31803482E-07 -0.31803482E-07
  0.38862591E-06  0.25654993E-06  0.25654993E-06  0.16627121E-06  0.25668001E-06
 -0.79390336E-07 -0.79390336E-07
 -0.13585298E-20 -0.10234059E-18 -0.20378335E-08 -0.21374868E-07 -0.21374868E-07
  0.10865272E-07 -0.47421714E-08 -0.25775516E-19 -0.22193659E-18  0.35840365E-08
  0.35840365E-08 -0.67191755E-08  0.59222293E-08  0.59222293E-08  0.32100656E-08
 -0.85136397E-08  0.23372334E-08  0.23372334E-08 -0.35840365E-08 -0.35840365E-08
 -0.67191755E-08  0.59222293E-08  0.59222293E-08  0.32100656E-08 -0.85136397E-08
 -0.23372334E-08 -0.23372334E-08 -0.87232341E-20 -0.15787698E-19 -0.10895549E-09
  0.96954394E-07  0.96954394E-07 -0.34369381E-07  0.22661503E-07  0.16652024E-19
  0.11141544E-19  0.34217508E-07  0.34217508E-07  0.76595808E-07 -0.97137893E-07
 -0.97137893E-07  0.23059280E-06 -0.12753477E-06 -0.12223703E-06 -0.12223703E-06
 -0.34217508E-07 -0.34217508E-07  0.76595808E-07 -0.97137893E-07 -0.97137893E-07
  0.23059280E-06 -0.12753477E-06  0.12223703E-06  0.12223703E-06 -0.13538716E-06
 -0.13538716E-06 -0.24616232E-06  0.13225824E-06  0.13225824E-06 -0.27413879E-06
 -0.16731628E-06  0.22932980E-07  0.22932980E-07  0.13538716E-06  0.13538716E-06
 -0.24616232E-06  0.13225824E-06  0.13225824E-06 -0.27413879E-06 -0.16731628E-06
 -0.22932980E-07 -0.22932980E-07
 -0.13585298E-20 -0.10234059E-18 -0.20378335E-08 -0.21374868E-07 -0.21374868E-07
  0.10865272E-07 -0.47421714E-08 -0.25775516E-19 -0.22193659E-18  0.35840365E-08
  0.35840365E-08 -0.67191755E-08  0.59222293E-08  0.59222293E-08  0.32100656E-08
 -0.85136397E-08  0.23372334E-08  0.23372334E-08 -0.35840365E-08 -0.35840365E-08
 -0.67191755E-08  0.59222293E-08  0.59222293E-08  0.32100656E-08 -0.85136397E-08
 -0.23372334E-08 -0.23372334E-08 -0.87232341E-20 -0.15787698E-19 -0.10895549E-09
  0.96954394E-07  0.96954394E-07 -0.34369381E-07  0.22661503E-07  0.16652024E-19
  0.11141544E-19  0.34217508E-07  0.34217508E-07  0.76595808E-07 -0.97137893E-07
 -0.97137893E-07  0.23059280E-06 -0.12753477E-06 -0.12223703E-06 -0.12223703E-06
 -0.34217508E-07 -0.34217508E-07  0.76595808E-07 -0.97137893E-07 -0.97137893E-07
  0.23059280E-06 -0.12753477E-06  0.12223703E-06  0.12223703E-06 -0.13538716E-06
 -0.13538716E-06 -0.24616232E-06  0.13225824E-06  0.13225824E-06 -0.27413879E-06
 -0.16731628E-06  0.22932980E-07  0.22932980E-07  0.13538716E-06  0.13538716E-06
 -0.24616232E-06  0.13225824E-06  0.13225824E-06 -0.27413879E-06 -0.16731628E-06
 -0.22932980E-07 -0.22932980E-07
 -0.13903281E-20 -0.31079286E-20  0.36753544E-08  0.14160553E-07  0.14160553E-07
 -0.11084594E-07  0.19701397E-08 -0.38522071E-19 -0.95287369E-19  0.10262283E-08
  0.10262283E-08  0.63902550E-08  0.44555259E-08  0.44555259E-08  0.37550665E-08
 -0.10887274E-08  0.37918789E-09  0.37918789E-09 -0.10262283E-08 -0.10262283E-08
  0.63902550E-08  0.44555259E-08  0.44555259E-08  0.37550665E-08 -0.10887274E-08
 -0.37918789E-09 -0.37918789E-09 -0.15902525E-20 -0.58164874E-20 -0.32454362E-08
 -0.34369381E-07 -0.34369381E-07  0.10234651E-06 -0.53274103E-08  0.89177843E-20
  0.71979738E-20  0.83572776E-07  0.83572776E-07  0.39925626E-09  0.58908025E-07
  0.58908025E-07  0.40496886E-07  0.52022403E-07 -0.12208985E-06 -0.12208985E-06
 -0.83572776E-07 -0.83572776E-07  0.39925626E-09  0.58908025E-07  0.58908025E-07
  0.40496886E-07  0.52022403E-07  0.12208985E-06  0.12208985E-06  0.43576345E-07
  0.43576345E-07 -0.53503375E-07  0.59501372E-07  0.59501372E-07 -0.22078559E-06
  0.13812997E-07 -0.15738807E-07 -0.15738807E-07 -0.43576345E-07 -0.43576345E-07
 -0.53503375E-07  0.59501372E-07  0.59501372E-07 -0.22078559E-06  0.13812997E-07
  0.15738807E-07  0.15738807E-07
 -0.85224502E-21 -0.92499383E-19 -0.87386523E-08 -0.23309942E-07 -0.23309942E-07
  0.15172369E-08 -0.59140596E-07 -0.76365529E-20 -0.15253382E-18  0.67303595E-08
  0.67303595E-08 -0.40231170E-08  0.66855945E-09  0.66855945E-09 -0.23629699E-08
 -0.47861128E-09 -0.15078022E-08 -0.15078022E-08 -0.67303595E-08 -0.67303595E-08
 -0.40231170E-08  0.66855945E-09  0.66855945E-09 -0.23629699E-08 -0.47861128E-09
  0.15078022E-08  0.15078022E-08 -0.24301473E-20 -0.60036183E-20  0.20272705E-07
  0.22661503E-07  0.22661503E-07 -0.53274103E-08  0.27266979E-06  0.52932948E-20
  0.25715969E-20 -0.15207934E-06 -0.15207934E-06 -0.64024310E-07 -0.79565902E-07
 -0.79565902E-07  0.12334008E-07  0.18465246E-06 -0.28787411E-07 -0.28787411E-07
  0.15207934E-06  0.15207934E-06 -0.64024310E-07 -0.79565902E-07 -0.79565902E-07
  0.12334008E-07  0.18465246E-06  0.28787411E-07  0.28787411E-07  0.15797447E-06
  0.15797447E-06  0.25665892E-06  0.72099530E-07  0.72099530E-07 -0.92158083E-07
 -0.13688714E-06 -0.15626973E-06 -0.15626973E-06 -0.15797447E-06 -0.15797447E-06
  0.25665892E-06  0.72099530E-07  0.72099530E-07 -0.92158083E-07 -0.13688714E-06
  0.15626973E-06  0.15626973E-06
 -0.43105765E-31 -0.30923447E-29 -0.38291090E-19  0.31004876E-19  0.31004876E-19
  0.46738454E-20  0.13472829E-19 -0.98965818E-30 -0.71945796E-29  0.96017877E-20
  0.96017877E-20 -0.53066266E-19 -0.34763897E-19 -0.34763897E-19  0.25241158E-19
  0.50963572E-19 -0.34591359E-20 -0.34591359E-20 -0.96017877E-20 -0.96017877E-20
 -0.53066266E-19 -0.34763897E-19 -0.34763897E-19  0.25241158E-19  0.50963572E-19
  0.34591359E-20  0.34591359E-20 -0.20794439E-30 -0.40723786E-30 -0.37562867E-20
  0.16652024E-19  0.16652024E-19  0.89177843E-20  0.52932948E-20  0.40083819E-30
  0.23583905E-30  0.48098681E-19  0.48098681E-19  0.55037987E-18 -0.29954894E-17
 -0.29954894E-17  0.32895450E-17  0.28863172E-17 -0.66939722E-18 -0.66939722E-18
 -0.48098681E-19 -0.48098681E-19  0.55037987E-18 -0.29954894E-17 -0.29954894E-17
  0.32895450E-17  0.28863172E-17  0.66939722E-18  0.66939722E-18 -0.63470467E-18
 -0.63470467E-18 -0.28261253E-17  0.42141046E-17  0.42141046E-17 -0.70938596E-17
 -0.44326956E-17 -0.61712369E-18 -0.61712369E-18  0.63470467E-18  0.63470467E-18
 -0.28261253E-17  0.42141046E-17  0.42141046E-17 -0.70938596E-17 -0.44326956E-17
  0.61712369E-18  0.61712369E-18
 -0.22170956E-31 -0.12968722E-29 -0.27938176E-19  0.22364336E-19  0.22364336E-19
  0.34469558E-20 -0.50188302E-20 -0.57356253E-30 -0.32675169E-29  0.19644397E-19
  0.19644397E-19 -0.33413249E-19 -0.16521015E-19 -0.16521015E-19  0.14829629E-19
  0.19636002E-19 -0.30084256E-20 -0.30084256E-20 -0.19644397E-19 -0.19644397E-19
 -0.33413249E-19 -0.16521015E-19 -0.16521015E-19  0.14829629E-19  0.19636002E-19
  0.30084256E-20  0.30084256E-20 -0.97731375E-31 -0.20162049E-30 -0.27938591E-20
  0.11141544E-19  0.11141544E-19  0.71979738E-20  0.25715969E-20  0.23583905E-30
  0.15975255E-30  0.28517375E-18  0.28517375E-18  0.34429941E-18 -0.80649833E-18
 -0.80649833E-18  0.19849795E-17  0.10385557E-17 -0.64866475E-18 -0.64866475E-18
 -0.28517375E-18 -0.28517375E-18  0.34429941E-18 -0.80649833E-18 -0.80649833E-18
  0.19849795E-17  0.10385557E-17  0.64866475E-18  0.64866475E-18 -0.51430168E-18
 -0.51430168E-18 -0.16501731E-17  0.24543546E-17  0.24543546E-17 -0.48705398E-17
 -0.10610200E-17 -0.99575931E-18 -0.99575931E-18  0.51430168E-18  0.51430168E-18
 -0.16501731E-17  0.24543546E-17  0.24543546E-17 -0.48705398E-17 -0.10610200E-17
  0.99575931E-18  0.99575931E-18
 -0.83163133E-19  0.73239256E-17 -0.11298662E-06  0.22250668E-06  0.22250668E-06
  0.72647388E-07 -0.43059726E-06 -0.34991982E-17  0.69650536E-17  0.57813444E-06
  0.57813444E-06  0.75007920E-06  0.12788147E-06  0.12788147E-06  0.52834646E-07
  0.10647795E-06  0.19293942E-06  0.19293942E-06 -0.57813444E-06 -0.57813444E-06
  0.75007920E-06  0.12788147E-06  0.12788147E-06  0.52834646E-07  0.10647795E-06
 -0.19293942E-06 -0.19293942E-06 -0.85924795E-18 -0.38011790E-18 -0.33882545E-06
  0.34217508E-07  0.34217508E-07  0.83572776E-07 -0.15207934E-06  0.48098681E-19
  0.28517375E-18  0.54793685E-04  0.54793685E-04 -0.40797259E-06  0.24532825E-05
  0.24532825E-05  0.49896226E-05 -0.69740107E-05 -0.64169875E-05 -0.64169875E-05
 -0.54793685E-04 -0.54793685E-04 -0.40797259E-06  0.24532825E-05  0.24532825E-05
  0.49896226E-05 -0.69740107E-05  0.64169875E-05  0.64169875E-05  0.68351060E-05
  0.68351060E-05  0.65162973E-05 -0.32574789E-05 -0.32574789E-05  0.64944426E-06
  0.68346395E-05 -0.12010403E-04 -0.12010403E-04 -0.68351060E-05 -0.68351060E-05
  0.65162973E-05 -0.32574789E-05 -0.32574789E-05  0.64944426E-06  0.68346395E-05
  0.12010403E-04  0.12010403E-04
 -0.83163133E-19  0.73239256E-17 -0.11298662E-06  0.22250668E-06  0.22250668E-06
  0.72647388E-07 -0.43059726E-06 -0.34991982E-17  0.69650536E-17  0.57813444E-06
  0.57813444E-06  0.75007920E-06  0.12788147E-06  0.12788147E-06  0.52834646E-07
  0.10647795E-06  0.19293942E-06  0.19293942E-06 -0.57813444E-06 -0.57813444E-06
  0.75007920E-06  0.12788147E-06  0.12788147E-06  0.52834646E-07  0.10647795E-06
 -0.19293942E-06 -0.19293942E-06 -0.85924795E-18 -0.38011790E-18 -0.33882545E-06
  0.34217508E-07  0.34217508E-07  0.83572776E-07 -0.15207934E-06  0.48098681E-19
  0.28517375E-18  0.54793685E-04  0.54793685E-04 -0.40797259E-06  0.24532825E-05
  0.24532825E-05  0.49896226E-05 -0.69740107E-05 -0.64169875E-05 -0.64169875E-05
 -0.54793685E-04 -0.54793685E-04 -0.40797259E-06  0.24532825E-05  0.24532825E-05
  0.49896226E-05 -0.69740107E-05  0.64169875E-05  0.64169875E-05  0.68351060E-05
  0.68351060E-05  0.65162973E-05 -0.32574789E-05 -0.32574789E-05  0.64944426E-06
  0.68346395E-05 -0.12010403E-04 -0.12010403E-04 -0.68351060E-05 -0.68351060E-05
  0.65162973E-05 -0.32574789E-05 -0.32574789E-05  0.64944426E-06  0.68346395E-05
  0.12010403E-04  0.12010403E-04
 -0.98340420E-19 -0.37941301E-17  0.36591837E-06  0.81017963E-07  0.81017963E-07
  0.16185552E-06  0.22471372E-06 -0.16448369E-17 -0.13082567E-16  0.58032088E-06
  0.58032088E-06 -0.96224990E-06  0.23597892E-06  0.23597892E-06 -0.17905401E-06
  0.67810052E-07  0.96637094E-07  0.96637094E-07 -0.58032088E-06 -0.58032088E-06
 -0.96224990E-06  0.23597892E-06  0.23597892E-06 -0.17905401E-06  0.67810052E-07
 -0.96637094E-07 -0.96637094E-07 -0.27614983E-18 -0.63499207E-18 -0.55470410E-06
  0.76595808E-07  0.76595808E-07  0.39925626E-09 -0.64024310E-07  0.55037987E-18
  0.34429941E-18 -0.40797259E-06 -0.40797259E-06  0.68050693E-04 -0.43996860E-06
 -0.43996860E-06  0.13527691E-05  0.13406008E-05 -0.58430991E-05 -0.58430991E-05
  0.40797259E-06  0.40797259E-06  0.68050693E-04 -0.43996860E-06 -0.43996860E-06
  0.13527691E-05  0.13406008E-05  0.58430991E-05  0.58430991E-05 -0.22492784E-05
 -0.22492784E-05 -0.14773160E-05  0.26931065E-05  0.26931065E-05 -0.61403366E-05
 -0.10762696E-04  0.52064701E-05  0.52064701E-05  0.22492784E-05  0.22492784E-05
 -0.14773160E-05  0.26931065E-05  0.26931065E-05 -0.61403366E-05 -0.10762696E-04
 -0.52064701E-05 -0.52064701E-05
  0.34145845E-18  0.58930848E-16 -0.23965170E-06  0.49862754E-07  0.49862754E-07
  0.19344257E-07  0.21087072E-07  0.16436414E-16  0.12092359E-15  0.83362910E-06
  0.83362910E-06 -0.22268573E-06  0.20764661E-06  0.20764661E-06 -0.22392034E-06
 -0.17382243E-06  0.10875080E-06  0.10875080E-06 -0.83362910E-06 -0.83362910E-06
 -0.22268573E-06  0.20764661E-06  0.20764661E-06 -0.22392034E-06 -0.17382243E-06
 -0.10875080E-06 -0.10875080E-06  0.88186046E-17  0.72680810E-17  0.10558720E-06
 -0.97137893E-07 -0.97137893E-07  0.58908025E-07 -0.79565902E-07 -0.29954894E-17
 -0.80649833E-18  0.24532825E-05  0.24532825E-05 -0.43996860E-06  0.17445613E-03
  0.17445613E-03 -0.69424303E-04 -0.99349242E-04 -0.32586575E-05 -0.32586575E-05
 -0.24532825E-05 -0.24532825E-05 -0.43996860E-06  0.17445613E-03  0.17445613E-03
 -0.69424303E-04 -0.99349242E-04  0.32586575E-05  0.32586575E-05  0.67947455E-05
  0.67947455E-05  0.10364339E-04 -0.59699497E-05 -0.59699497E-05  0.22227791E-04
  0.30505645E-04 -0.10247358E-04 -0.10247358E-04 -0.67947455E-05 -0.67947455E-05
  0.10364339E-04 -0.59699497E-05 -0.59699497E-05  0.22227791E-04  0.30505645E-04
  0.10247358E-04  0.10247358E-04
  0.34145845E-18  0.58930848E-16 -0.23965170E-06  0.49862754E-07  0.49862754E-07
  0.19344257E-07  0.21087072E-07  0.16436414E-16  0.12092359E-15  0.83362910E-06
  0.83362910E-06 -0.22268573E-06  0.20764661E-06  0.20764661E-06 -0.22392034E-06
 -0.17382243E-06  0.10875080E-06  0.10875080E-06 -0.83362910E-06 -0.83362910E-06
 -0.22268573E-06  0.20764661E-06  0.20764661E-06 -0.22392034E-06 -0.17382243E-06
 -0.10875080E-06 -0.10875080E-06  0.88186046E-17  0.72680810E-17  0.10558720E-06
 -0.97137893E-07 -0.97137893E-07  0.58908025E-07 -0.79565902E-07 -0.29954894E-17
 -0.80649833E-18  0.24532825E-05  0.24532825E-05 -0.43996860E-06  0.17445613E-03
  0.17445613E-03 -0.69424303E-04 -0.99349242E-04 -0.32586575E-05 -0.32586575E-05
 -0.24532825E-05 -0.24532825E-05 -0.43996860E-06  0.17445613E-03  0.17445613E-03
 -0.69424303E-04 -0.99349242E-04  0.32586575E-05  0.32586575E-05  0.67947455E-05
  0.67947455E-05  0.10364339E-04 -0.59699497E-05 -0.59699497E-05  0.22227791E-04
  0.30505645E-04 -0.10247358E-04 -0.10247358E-04 -0.67947455E-05 -0.67947455E-05
  0.10364339E-04 -0.59699497E-05 -0.59699497E-05  0.22227791E-04  0.30505645E-04
  0.10247358E-04  0.10247358E-04
 -0.12004671E-18 -0.34559198E-16 -0.52230823E-06  0.10399205E-06  0.10399205E-06
 -0.10954594E-06 -0.16451271E-06 -0.92644455E-17 -0.57790046E-16  0.68630145E-06
  0.68630145E-06  0.14203819E-05 -0.13055601E-06 -0.13055601E-06  0.44597492E-06
 -0.12236471E-06  0.18419874E-06  0.18419874E-06 -0.68630145E-06 -0.68630145E-06
  0.14203819E-05 -0.13055601E-06 -0.13055601E-06  0.44597492E-06 -0.12236471E-06
 -0.18419874E-06 -0.18419874E-06 -0.59307338E-17 -0.47961731E-17  0.53523770E-06
  0.23059280E-06  0.23059280E-06  0.40496886E-07  0.12334008E-07  0.32895450E-17
  0.19849795E-17  0.49896226E-05  0.49896226E-05  0.13527691E-05 -0.69424303E-04
 -0.69424303E-04  0.17224383E-03  0.25997818E-04 -0.24846161E-05 -0.24846161E-05
 -0.49896226E-05 -0.49896226E-05  0.13527691E-05 -0.69424303E-04 -0.69424303E-04
  0.17224383E-03  0.25997818E-04  0.24846161E-05  0.24846161E-05 -0.25035944E-04
 -0.25035944E-04 -0.13523760E-05  0.74725672E-05  0.74725672E-05 -0.60321488E-04
 -0.49240134E-05 -0.12749413E-04 -0.12749413E-04  0.25035944E-04  0.25035944E-04
 -0.13523760E-05  0.74725672E-05  0.74725672E-05 -0.60321488E-04 -0.49240134E-05
  0.12749413E-04  0.12749413E-04
 -0.47312753E-18 -0.40615533E-16  0.11513830E-06 -0.10382375E-06 -0.10382375E-06
  0.30530682E-07 -0.51825587E-06 -0.25653083E-16 -0.11718605E-15 -0.44205788E-06
 -0.44205788E-06 -0.79513284E-06  0.31764646E-06  0.31764646E-06 -0.84482325E-08
 -0.44269369E-06 -0.36242872E-06 -0.36242872E-06  0.44205788E-06  0.44205788E-06
 -0.79513284E-06  0.31764646E-06  0.31764646E-06 -0.84482325E-08 -0.44269369E-06
  0.36242872E-06  0.36242872E-06 -0.61673622E-17 -0.44325284E-17 -0.47359854E-07
 -0.12753477E-06 -0.12753477E-06  0.52022403E-07  0.18465246E-06  0.28863172E-17
  0.10385557E-17 -0.69740107E-05 -0.69740107E-05  0.13406008E-05 -0.99349242E-04
 -0.99349242E-04  0.25997818E-04  0.24818553E-03 -0.19282135E-05 -0.19282135E-05
  0.69740107E-05  0.69740107E-05  0.13406008E-05 -0.99349242E-04 -0.99349242E-04
  0.25997818E-04  0.24818553E-03  0.19282135E-05  0.19282135E-05  0.42958138E-06
  0.42958138E-06 -0.10834119E-04  0.13563856E-04  0.13563856E-04 -0.19946750E-04
  0.26243676E-04  0.10917856E-04  0.10917856E-04 -0.42958138E-06 -0.42958138E-06
 -0.10834119E-04  0.13563856E-04  0.13563856E-04 -0.19946750E-04  0.26243676E-04
 -0.10917856E-04 -0.10917856E-04
  0.17412508E-18  0.24363506E-17 -0.27118512E-06 -0.15102519E-06 -0.15102519E-06
 -0.10109216E-06  0.22793192E-06  0.31294572E-17  0.14052455E-16 -0.37391019E-06
 -0.37391019E-06  0.84228316E-07 -0.15364725E-06 -0.15364725E-06  0.76189508E-07
 -0.16620608E-06 -0.86775508E-07 -0.86775508E-07  0.37391019E-06  0.37391019E-06
  0.84228316E-07 -0.15364725E-06 -0.15364725E-06  0.76189508E-07 -0.16620608E-06
  0.86775508E-07  0.86775508E-07  0.46506434E-18  0.49123394E-18 -0.27385793E-07
 -0.12223703E-06 -0.12223703E-06 -0.12208985E-06 -0.28787411E-07 -0.66939722E-18
 -0.64866475E-18 -0.64169875E-05 -0.64169875E-05 -0.58430991E-05 -0.32586575E-05
 -0.32586575E-05 -0.24846161E-05 -0.19282135E-05  0.65018235E-04  0.65018235E-04
  0.64169875E-05  0.64169875E-05 -0.58430991E-05 -0.32586575E-05 -0.32586575E-05
 -0.24846161E-05 -0.19282135E-05 -0.65018235E-04 -0.65018235E-04 -0.35529778E-05
 -0.35529778E-05 -0.12625164E-04  0.14684393E-05  0.14684393E-05  0.10437075E-05
  0.70434098E-05 -0.64777530E-05 -0.64777530E-05  0.35529778E-05  0.35529778E-05
 -0.12625164E-04  0.14684393E-05  0.14684393E-05  0.10437075E-05  0.70434098E-05
  0.64777530E-05  0.64777530E-05
  0.17412508E-18  0.24363506E-17 -0.27118512E-06 -0.15102519E-06 -0.15102519E-06
 -0.10109216E-06  0.22793192E-06  0.31294572E-17  0.14052455E-16 -0.37391019E-06
 -0.37391019E-06  0.84228316E-07 -0.15364725E-06 -0.15364725E-06  0.76189508E-07
 -0.16620608E-06 -0.86775508E-07 -0.86775508E-07  0.37391019E-06  0.37391019E-06
  0.84228316E-07 -0.15364725E-06 -0.15364725E-06  0.76189508E-07 -0.16620608E-06
  0.86775508E-07  0.86775508E-07  0.46506434E-18  0.49123394E-18 -0.27385793E-07
 -0.12223703E-06 -0.12223703E-06 -0.12208985E-06 -0.28787411E-07 -0.66939722E-18
 -0.64866475E-18 -0.64169875E-05 -0.64169875E-05 -0.58430991E-05 -0.32586575E-05
 -0.32586575E-05 -0.24846161E-05 -0.19282135E-05  0.65018235E-04  0.65018235E-04
  0.64169875E-05  0.64169875E-05 -0.58430991E-05 -0.32586575E-05 -0.32586575E-05
 -0.24846161E-05 -0.19282135E-05 -0.65018235E-04 -0.65018235E-04 -0.35529778E-05
 -0.35529778E-05 -0.12625164E-04  0.14684393E-05  0.14684393E-05  0.10437075E-05
  0.70434098E-05 -0.64777530E-05 -0.64777530E-05  0.35529778E-05  0.35529778E-05
 -0.12625164E-04  0.14684393E-05  0.14684393E-05  0.10437075E-05  0.70434098E-05
  0.64777530E-05  0.64777530E-05
  0.83163133E-19 -0.73239256E-17  0.11298662E-06 -0.22250668E-06 -0.22250668E-06
 -0.72647388E-07  0.43059726E-06  0.34991982E-17 -0.69650536E-17 -0.57813444E-06
 -0.57813444E-06 -0.75007920E-06 -0.12788147E-06 -0.12788147E-06 -0.52834646E-07
 -0.10647795E-06 -0.19293942E-06 -0.19293942E-06  0.57813444E-06  0.57813444E-06
 -0.75007920E-06 -0.12788147E-06 -0.12788147E-06 -0.52834646E-07 -0.10647795E-06
  0.19293942E-06  0.19293942E-06  0.85924795E-18  0.38011790E-18  0.33882545E-06
 -0.34217508E-07 -0.34217508E-07 -0.83572776E-07  0.15207934E-06 -0.48098681E-19
 -0.28517375E-18 -0.54793685E-04 -0.54793685E-04  0.40797259E-06 -0.24532825E-05
 -0.24532825E-05 -0.49896226E-05  0.69740107E-05  0.64169875E-05  0.64169875E-05
  0.54793685E-04  0.54793685E-04  0.40797259E-06 -0.24532825E-05 -0.24532825E-05
 -0.49896226E-05  0.69740107E-05 -0.64169875E-05 -0.64169875E-05 -0.68351060E-05
 -0.68351060E-05 -0.65162973E-05  0.32574789E-05  0.32574789E-05 -0.64944426E-06
 -0.68346395E-05  0.12010403E-04  0.12010403E-04  0.68351060E-05  0.68351060E-05
 -0.65162973E-05  0.32574789E-05  0.32574789E-05 -0.64944426E-06 -0.68346395E-05
 -0.12010403E-04 -0.12010403E-04
  0.83163133E-19 -0.73239256E-17  0.11298662E-06 -0.22250668E-06 -0.22250668E-06
 -0.72647388E-07  0.43059726E-06  0.34991982E-17 -0.69650536E-17 -0.57813444E-06
 -0.57813444E-06 -0.75007920E-06 -0.12788147E-06 -0.12788147E-06 -0.52834646E-07
 -0.10647795E-06 -0.19293942E-06 -0.19293942E-06  0.57813444E-06  0.57813444E-06
 -0.75007920E-06 -0.12788147E-06 -0.12788147E-06 -0.52834646E-07 -0.10647795E-06
  0.19293942E-06  0.19293942E-06  0.85924795E-18  0.38011790E-18  0.33882545E-06
 -0.34217508E-07 -0.34217508E-07 -0.83572776E-07  0.15207934E-06 -0.48098681E-19
 -0.28517375E-18 -0.54793685E-04 -0.54793685E-04  0.40797259E-06 -0.24532825E-05
 -0.24532825E-05 -0.49896226E-05  0.69740107E-05  0.64169875E-05  0.64169875E-05
  0.54793685E-04  0.54793685E-04  0.40797259E-06 -0.24532825E-05 -0.24532825E-05
 -0.49896226E-05  0.69740107E-05 -0.64169875E-05 -0.64169875E-05 -0.68351060E-05
 -0.68351060E-05 -0.65162973E-05  0.32574789E-05  0.32574789E-05 -0.64944426E-06
 -0.68346395E-05  0.12010403E-04  0.12010403E-04  0.68351060E-05  0.68351060E-05
 -0.65162973E-05  0.32574789E-05  0.32574789E-05 -0.64944426E-06 -0.68346395E-05
 -0.12010403E-04 -0.12010403E-04
 -0.98340420E-19 -0.37941301E-17  0.36591837E-06  0.81017963E-07  0.81017963E-07
  0.16185552E-06  0.22471372E-06 -0.16448369E-17 -0.13082567E-16  0.58032088E-06
  0.58032088E-06 -0.96224990E-06  0.23597892E-06  0.23597892E-06 -0.17905401E-06
  0.67810052E-07  0.96637094E-07  0.96637094E-07 -0.58032088E-06 -0.58032088E-06
 -0.96224990E-06  0.23597892E-06  0.23597892E-06 -0.17905401E-06  0.67810052E-07
 -0.96637094E-07 -0.96637094E-07 -0.27614983E-18 -0.63499207E-18 -0.55470410E-06
  0.76595808E-07  0.76595808E-07  0.39925626E-09 -0.64024310E-07  0.55037987E-18
  0.34429941E-18 -0.40797259E-06 -0.40797259E-06  0.68050693E-04 -0.43996860E-06
 -0.43996860E-06  0.13527691E-05  0.13406008E-05 -0.58430991E-05 -0.58430991E-05
  0.40797259E-06  0.40797259E-06  0.68050693E-04 -0.43996860E-06 -0.43996860E-06
  0.13527691E-05  0.13406008E-05  0.58430991E-05  0.58430991E-05 -0.22492784E-05
 -0.22492784E-05 -0.14773160E-05  0.26931065E-05  0.26931065E-05 -0.61403366E-05
 -0.10762696E-04  0.52064701E-05  0.52064701E-05  0.22492784E-05  0.22492784E-05
 -0.14773160E-05  0.26931065E-05  0.26931065E-05 -0.61403366E-05 -0.10762696E-04
 -0.52064701E-05 -0.52064701E-05
  0.34145845E-18  0.58930848E-16 -0.23965170E-06  0.49862754E-07  0.49862754E-07
  0.19344257E-07  0.21087072E-07  0.16436414E-16  0.12092359E-15  0.83362910E-06
  0.83362910E-06 -0.22268573E-06  0.20764661E-06  0.20764661E-06 -0.22392034E-06
 -0.17382243E-06  0.10875080E-06  0.10875080E-06 -0.83362910E-06 -0.83362910E-06
 -0.22268573E-06  0.20764661E-06  0.20764661E-06 -0.22392034E-06 -0.17382243E-06
 -0.10875080E-06 -0.10875080E-06  0.88186046E-17  0.72680810E-17  0.10558720E-06
 -0.97137893E-07 -0.97137893E-07  0.58908025E-07 -0.79565902E-07 -0.29954894E-17
 -0.80649833E-18  0.24532825E-05  0.24532825E-05 -0.43996860E-06  0.17445613E-03
  0.17445613E-03 -0.69424303E-04 -0.99349242E-04 -0.32586575E-05 -0.32586575E-05
 -0.24532825E-05 -0.24532825E-05 -0.43996860E-06  0.17445613E-03  0.17445613E-03
 -0.69424303E-04 -0.99349242E-04  0.32586575E-05  0.32586575E-05  0.67947455E-05
  0.67947455E-05  0.10364339E-04 -0.59699497E-05 -0.59699497E-05  0.22227791E-04
  0.30505645E-04 -0.10247358E-04 -0.10247358E-04 -0.67947455E-05 -0.67947455E-05
  0.10364339E-04 -0.59699497E-05 -0.59699497E-05  0.22227791E-04  0.30505645E-04
  0.10247358E-04  0.10247358E-04
  0.34145845E-18  0.58930848E-16 -0.23965170E-06  0.49862754E-07  0.49862754E-07
  0.19344257E-07  0.21087072E-07  0.16436414E-16  0.12092359E-15  0.83362910E-06
  0.83362910E-06 -0.22268573E-06  0.20764661E-06  0.20764661E-06 -0.22392034E-06
 -0.17382243E-06  0.10875080E-06  0.10875080E-06 -0.83362910E-06 -0.83362910E-06
 -0.22268573E-06  0.20764661E-06  0.20764661E-06 -0.22392034E-06 -0.17382243E-06
 -0.10875080E-06 -0.10875080E-06  0.88186046E-17  0.72680810E-17  0.10558720E-06
 -0.97137893E-07 -0.97137893E-07  0.58908025E-07 -0.79565902E-07 -0.29954894E-17
 -0.80649833E-18  0.24532825E-05  0.24532825E-05 -0.43996860E-06  0.17445613E-03
  0.17445613E-03 -0.69424303E-04 -0.99349242E-04 -0.32586575E-05 -0.32586575E-05
 -0.24532825E-05 -0.24532825E-05 -0.43996860E-06  0.17445613E-03  0.17445613E-03
 -0.69424303E-04 -0.99349242E-04  0.32586575E-05  0.32586575E-05  0.67947455E-05
  0.67947455E-05  0.10364339E-04 -0.59699497E-05 -0.59699497E-05  0.22227791E-04
  0.30505645E-04 -0.10247358E-04 -0.10247358E-04 -0.67947455E-05 -0.67947455E-05
  0.10364339E-04 -0.59699497E-05 -0.59699497E-05  0.22227791E-04  0.30505645E-04
  0.10247358E-04  0.10247358E-04
 -0.12004671E-18 -0.34559198E-16 -0.52230823E-06  0.10399205E-06  0.10399205E-06
 -0.10954594E-06 -0.16451271E-06 -0.92644455E-17 -0.57790046E-16  0.68630145E-06
  0.68630145E-06  0.14203819E-05 -0.13055601E-06 -0.13055601E-06  0.44597492E-06
 -0.12236471E-06  0.18419874E-06  0.18419874E-06 -0.68630145E-06 -0.68630145E-06
  0.14203819E-05 -0.13055601E-06 -0.13055601E-06  0.44597492E-06 -0.12236471E-06
 -0.18419874E-06 -0.18419874E-06 -0.59307338E-17 -0.47961731E-17  0.53523770E-06
  0.23059280E-06  0.23059280E-06  0.40496886E-07  0.12334008E-07  0.32895450E-17
  0.19849795E-17  0.49896226E-05  0.49896226E-05  0.13527691E-05 -0.69424303E-04
 -0.69424303E-04  0.17224383E-03  0.25997818E-04 -0.24846161E-05 -0.24846161E-05
 -0.49896226E-05 -0.49896226E-05  0.13527691E-05 -0.69424303E-04 -0.69424303E-04
  0.17224383E-03  0.25997818E-04  0.24846161E-05  0.24846161E-05 -0.25035944E-04
 -0.25035944E-04 -0.13523760E-05  0.74725672E-05  0.74725672E-05 -0.60321488E-04
 -0.49240134E-05 -0.12749413E-04 -0.12749413E-04  0.25035944E-04  0.25035944E-04
 -0.13523760E-05  0.74725672E-05  0.74725672E-05 -0.60321488E-04 -0.49240134E-05
  0.12749413E-04  0.12749413E-04
 -0.47312753E-18 -0.40615533E-16  0.11513830E-06 -0.10382375E-06 -0.10382375E-06
  0.30530682E-07 -0.51825587E-06 -0.25653083E-16 -0.11718605E-15 -0.44205788E-06
 -0.44205788E-06 -0.79513284E-06  0.31764646E-06  0.31764646E-06 -0.84482325E-08
 -0.44269369E-06 -0.36242872E-06 -0.36242872E-06  0.44205788E-06  0.44205788E-06
 -0.79513284E-06  0.31764646E-06  0.31764646E-06 -0.84482325E-08 -0.44269369E-06
  0.36242872E-06  0.36242872E-06 -0.61673622E-17 -0.44325284E-17 -0.47359854E-07
 -0.12753477E-06 -0.12753477E-06  0.52022403E-07  0.18465246E-06  0.28863172E-17
  0.10385557E-17 -0.69740107E-05 -0.69740107E-05  0.13406008E-05 -0.99349242E-04
 -0.99349242E-04  0.25997818E-04  0.24818553E-03 -0.19282135E-05 -0.19282135E-05
  0.69740107E-05  0.69740107E-05  0.13406008E-05 -0.99349242E-04 -0.99349242E-04
  0.25997818E-04  0.24818553E-03  0.19282135E-05  0.19282135E-05  0.42958138E-06
  0.42958138E-06 -0.10834119E-04  0.13563856E-04  0.13563856E-04 -0.19946750E-04
  0.26243676E-04  0.10917856E-04  0.10917856E-04 -0.42958138E-06 -0.42958138E-06
 -0.10834119E-04  0.13563856E-04  0.13563856E-04 -0.19946750E-04  0.26243676E-04
 -0.10917856E-04 -0.10917856E-04
 -0.17412508E-18 -0.24363506E-17  0.27118512E-06  0.15102519E-06  0.15102519E-06
  0.10109216E-06 -0.22793192E-06 -0.31294572E-17 -0.14052455E-16  0.37391019E-06
  0.37391019E-06 -0.84228316E-07  0.15364725E-06  0.15364725E-06 -0.76189508E-07
  0.16620608E-06  0.86775508E-07  0.86775508E-07 -0.37391019E-06 -0.37391019E-06
 -0.84228316E-07  0.15364725E-06  0.15364725E-06 -0.76189508E-07  0.16620608E-06
 -0.86775508E-07 -0.86775508E-07 -0.46506434E-18 -0.49123394E-18  0.27385793E-07
  0.12223703E-06  0.12223703E-06  0.12208985E-06  0.28787411E-07  0.66939722E-18
  0.64866475E-18  0.64169875E-05  0.64169875E-05  0.58430991E-05  0.32586575E-05
  0.32586575E-05  0.24846161E-05  0.19282135E-05 -0.65018235E-04 -0.65018235E-04
 -0.64169875E-05 -0.64169875E-05  0.58430991E-05  0.32586575E-05  0.32586575E-05
  0.24846161E-05  0.19282135E-05  0.65018235E-04  0.65018235E-04  0.35529778E-05
  0.35529778E-05  0.12625164E-04 -0.14684393E-05 -0.14684393E-05 -0.10437075E-05
 -0.70434098E-05  0.64777530E-05  0.64777530E-05 -0.35529778E-05 -0.35529778E-05
  0.12625164E-04 -0.14684393E-05 -0.14684393E-05 -0.10437075E-05 -0.70434098E-05
 -0.64777530E-05 -0.64777530E-05
 -0.17412508E-18 -0.24363506E-17  0.27118512E-06  0.15102519E-06  0.15102519E-06
  0.10109216E-06 -0.22793192E-06 -0.31294572E-17 -0.14052455E-16  0.37391019E-06
  0.37391019E-06 -0.84228316E-07  0.15364725E-06  0.15364725E-06 -0.76189508E-07
  0.16620608E-06  0.86775508E-07  0.86775508E-07 -0.37391019E-06 -0.37391019E-06
 -0.84228316E-07  0.15364725E-06  0.15364725E-06 -0.76189508E-07  0.16620608E-06
 -0.86775508E-07 -0.86775508E-07 -0.46506434E-18 -0.49123394E-18  0.27385793E-07
  0.12223703E-06  0.12223703E-06  0.12208985E-06  0.28787411E-07  0.66939722E-18
  0.64866475E-18  0.64169875E-05  0.64169875E-05  0.58430991E-05  0.32586575E-05
  0.32586575E-05  0.24846161E-05  0.19282135E-05 -0.65018235E-04 -0.65018235E-04
 -0.64169875E-05 -0.64169875E-05  0.58430991E-05  0.32586575E-05  0.32586575E-05
  0.24846161E-05  0.19282135E-05  0.65018235E-04  0.65018235E-04  0.35529778E-05
  0.35529778E-05  0.12625164E-04 -0.14684393E-05 -0.14684393E-05 -0.10437075E-05
 -0.70434098E-05  0.64777530E-05  0.64777530E-05 -0.35529778E-05 -0.35529778E-05
  0.12625164E-04 -0.14684393E-05 -0.14684393E-05 -0.10437075E-05 -0.70434098E-05
 -0.64777530E-05 -0.64777530E-05
 -0.12987839E-18  0.45731645E-17 -0.24102995E-06  0.10452700E-06  0.10452700E-06
  0.93061185E-09  0.31802341E-06 -0.22091717E-17 -0.43090414E-17 -0.97430210E-06
 -0.97430210E-06  0.54875731E-07 -0.13784645E-06 -0.13784645E-06 -0.60559628E-07
  0.35887115E-06  0.26758095E-06  0.26758095E-06  0.97430210E-06  0.97430210E-06
  0.54875731E-07 -0.13784645E-06 -0.13784645E-06 -0.60559628E-07  0.35887115E-06
 -0.26758095E-06 -0.26758095E-06  0.64631236E-18  0.77393031E-19  0.31803482E-07
 -0.13538716E-06 -0.13538716E-06  0.43576345E-07  0.15797447E-06 -0.63470467E-18
 -0.51430168E-18  0.68351060E-05  0.68351060E-05 -0.22492784E-05  0.67947455E-05
  0.67947455E-05 -0.25035944E-04  0.42958138E-06 -0.35529778E-05 -0.35529778E-05
 -0.68351060E-05 -0.68351060E-05 -0.22492784E-05  0.67947455E-05  0.67947455E-05
 -0.25035944E-04  0.42958138E-06  0.35529778E-05  0.35529778E-05  0.70874549E-04
  0.70874549E-04 -0.19472778E-06 -0.20404604E-06 -0.20404604E-06  0.15367322E-04
 -0.33657743E-05  0.12464874E-05  0.12464874E-05 -0.70874549E-04 -0.70874549E-04
 -0.19472778E-06 -0.20404604E-06 -0.20404604E-06  0.15367322E-04 -0.33657743E-05
 -0.12464874E-05 -0.12464874E-05
 -0.12987839E-18  0.45731645E-17 -0.24102995E-06  0.10452700E-06  0.10452700E-06
  0.93061185E-09  0.31802341E-06 -0.22091717E-17 -0.43090414E-17 -0.97430210E-06
 -0.97430210E-06  0.54875731E-07 -0.13784645E-06 -0.13784645E-06 -0.60559628E-07
  0.35887115E-06  0.26758095E-06  0.26758095E-06  0.97430210E-06  0.97430210E-06
  0.54875731E-07 -0.13784645E-06 -0.13784645E-06 -0.60559628E-07  0.35887115E-06
 -0.26758095E-06 -0.26758095E-06  0.64631236E-18  0.77393031E-19  0.31803482E-07
 -0.13538716E-06 -0.13538716E-06  0.43576345E-07  0.15797447E-06 -0.63470467E-18
 -0.51430168E-18  0.68351060E-05  0.68351060E-05 -0.22492784E-05  0.67947455E-05
  0.67947455E-05 -0.25035944E-04  0.42958138E-06 -0.35529778E-05 -0.35529778E-05
 -0.68351060E-05 -0.68351060E-05 -0.22492784E-05  0.67947455E-05  0.67947455E-05
 -0.25035944E-04  0.42958138E-06  0.35529778E-05  0.35529778E-05  0.70874549E-04
  0.70874549E-04 -0.19472778E-06 -0.20404604E-06 -0.20404604E-06  0.15367322E-04
 -0.33657743E-05  0.12464874E-05  0.12464874E-05 -0.70874549E-04 -0.70874549E-04
 -0.19472778E-06 -0.20404604E-06 -0.20404604E-06  0.15367322E-04 -0.33657743E-05
 -0.12464874E-05 -0.12464874E-05
  0.31612833E-18  0.16816010E-16  0.44342830E-06 -0.57618413E-06 -0.57618413E-06
 -0.19858071E-06 -0.46720391E-06  0.63067093E-17  0.45909887E-16  0.34895392E-06
  0.34895392E-06  0.20064850E-05  0.32428787E-06  0.32428787E-06 -0.42437811E-06
 -0.54822015E-06  0.11590993E-06  0.11590993E-06 -0.34895392E-06 -0.34895392E-06
  0.20064850E-05  0.32428787E-06  0.32428787E-06 -0.42437811E-06 -0.54822015E-06
 -0.11590993E-06 -0.11590993E-06  0.29719616E-18  0.23076100E-17  0.38862591E-06
 -0.24616232E-06 -0.24616232E-06 -0.53503375E-07  0.25665892E-06 -0.28261253E-17
 -0.16501731E-17  0.65162973E-05  0.65162973E-05 -0.14773160E-05  0.10364339E-04
  0.10364339E-04 -0.13523760E-05 -0.10834119E-04 -0.12625164E-04 -0.12625164E-04
 -0.65162973E-05 -0.65162973E-05 -0.14773160E-05  0.10364339E-04  0.10364339E-04
 -0.13523760E-05 -0.10834119E-04  0.12625164E-04  0.12625164E-04 -0.19472778E-06
 -0.19472778E-06  0.17390575E-03 -0.22491439E-04 -0.22491439E-04  0.15016402E-04
  0.32525755E-04 -0.73544238E-06 -0.73544238E-06  0.19472778E-06  0.19472778E-06
  0.17390575E-03 -0.22491439E-04 -0.22491439E-04  0.15016402E-04  0.32525755E-04
  0.73544238E-06  0.73544238E-06
 -0.32017564E-18 -0.33641867E-16 -0.19910293E-06  0.57339225E-06  0.57339225E-06
 -0.45654334E-07  0.19605168E-06 -0.18165507E-17 -0.71904952E-16 -0.24598787E-06
 -0.24598787E-06 -0.10797846E-05 -0.61825365E-06 -0.61825365E-06  0.43016331E-06
  0.45248560E-06  0.33793068E-08  0.33793068E-08  0.24598787E-06  0.24598787E-06
 -0.10797846E-05 -0.61825365E-06 -0.61825365E-06  0.43016331E-06  0.45248560E-06
 -0.33793068E-08 -0.33793068E-08 -0.38341046E-18 -0.31766726E-17  0.25654993E-06
  0.13225824E-06  0.13225824E-06  0.59501372E-07  0.72099530E-07  0.42141046E-17
  0.24543546E-17 -0.32574789E-05 -0.32574789E-05  0.26931065E-05 -0.59699497E-05
 -0.59699497E-05  0.74725672E-05  0.13563856E-04  0.14684393E-05  0.14684393E-05
  0.32574789E-05  0.32574789E-05  0.26931065E-05 -0.59699497E-05 -0.59699497E-05
  0.74725672E-05  0.13563856E-04 -0.14684393E-05 -0.14684393E-05 -0.20404604E-06
 -0.20404604E-06 -0.22491439E-04  0.93916559E-04  0.93916559E-04 -0.51366495E-04
 -0.36661319E-04  0.66706023E-05  0.66706023E-05  0.20404604E-06  0.20404604E-06
 -0.22491439E-04  0.93916559E-04  0.93916559E-04 -0.51366495E-04 -0.36661319E-04
 -0.66706023E-05 -0.66706023E-05
 -0.32017564E-18 -0.33641867E-16 -0.19910293E-06  0.57339225E-06  0.57339225E-06
 -0.45654334E-07  0.19605168E-06 -0.18165507E-17 -0.71904952E-16 -0.24598787E-06
 -0.24598787E-06 -0.10797846E-05 -0.61825365E-06 -0.61825365E-06  0.43016331E-06
  0.45248560E-06  0.33793068E-08  0.33793068E-08  0.24598787E-06  0.24598787E-06
 -0.10797846E-05 -0.61825365E-06 -0.61825365E-06  0.43016331E-06  0.45248560E-06
 -0.33793068E-08 -0.33793068E-08 -0.38341046E-18 -0.31766726E-17  0.25654993E-06
  0.13225824E-06  0.13225824E-06  0.59501372E-07  0.72099530E-07  0.42141046E-17
  0.24543546E-17 -0.32574789E-05 -0.32574789E-05  0.26931065E-05 -0.59699497E-05
 -0.59699497E-05  0.74725672E-05  0.13563856E-04  0.14684393E-05  0.14684393E-05
  0.32574789E-05  0.32574789E-05  0.26931065E-05 -0.59699497E-05 -0.59699497E-05
  0.74725672E-05  0.13563856E-04 -0.14684393E-05 -0.14684393E-05 -0.20404604E-06
 -0.20404604E-06 -0.22491439E-04  0.93916559E-04  0.93916559E-04 -0.51366495E-04
 -0.36661319E-04  0.66706023E-05  0.66706023E-05  0.20404604E-06  0.20404604E-06
 -0.22491439E-04  0.93916559E-04  0.93916559E-04 -0.51366495E-04 -0.36661319E-04
 -0.66706023E-05 -0.66706023E-05
  0.77686440E-18  0.27208186E-16  0.15605714E-05 -0.41509018E-06 -0.41509018E-06
 -0.67490168E-07 -0.12179060E-07  0.24099953E-16  0.90629072E-16 -0.34739433E-06
 -0.34739433E-06  0.19043234E-06  0.38442853E-06  0.38442853E-06 -0.27797984E-06
 -0.38179571E-06 -0.26527147E-08 -0.26527147E-08  0.34739433E-06  0.34739433E-06
  0.19043234E-06  0.38442853E-06  0.38442853E-06 -0.27797984E-06 -0.38179571E-06
  0.26527147E-08  0.26527147E-08  0.27751817E-17  0.63231192E-17  0.16627121E-06
 -0.27413879E-06 -0.27413879E-06 -0.22078559E-06 -0.92158083E-07 -0.70938596E-17
 -0.48705398E-17  0.64944426E-06  0.64944426E-06 -0.61403366E-05  0.22227791E-04
  0.22227791E-04 -0.60321488E-04 -0.19946750E-04  0.10437075E-05  0.10437075E-05
 -0.64944426E-06 -0.64944426E-06 -0.61403366E-05  0.22227791E-04  0.22227791E-04
 -0.60321488E-04 -0.19946750E-04 -0.10437075E-05 -0.10437075E-05  0.15367322E-04
  0.15367322E-04  0.15016402E-04 -0.51366495E-04 -0.51366495E-04  0.21445161E-03
  0.14853727E-04  0.99684823E-05  0.99684823E-05 -0.15367322E-04 -0.15367322E-04
  0.15016402E-04 -0.51366495E-04 -0.51366495E-04  0.21445161E-03  0.14853727E-04
 -0.99684823E-05 -0.99684823E-05
  0.87161670E-18  0.72765181E-16 -0.13345161E-06  0.50661519E-07  0.50661519E-07
 -0.12403738E-06 -0.18031357E-05  0.57878388E-18  0.12506604E-15 -0.79967622E-07
 -0.79967622E-07  0.34222406E-06  0.10600567E-05  0.10600567E-05 -0.13411594E-06
 -0.28834100E-05 -0.64027675E-07 -0.64027675E-07  0.79967622E-07  0.79967622E-07
  0.34222406E-06  0.10600567E-05  0.10600567E-05 -0.13411594E-06 -0.28834100E-05
  0.64027675E-07  0.64027675E-07 -0.35556630E-18  0.64950523E-17  0.25668001E-06
 -0.16731628E-06 -0.16731628E-06  0.13812997E-07 -0.13688714E-06 -0.44326956E-17
 -0.10610200E-17  0.68346395E-05  0.68346395E-05 -0.10762696E-04  0.30505645E-04
  0.30505645E-04 -0.49240134E-05  0.26243676E-04  0.70434098E-05  0.70434098E-05
 -0.68346395E-05 -0.68346395E-05 -0.10762696E-04  0.30505645E-04  0.30505645E-04
 -0.49240134E-05  0.26243676E-04 -0.70434098E-05 -0.70434098E-05 -0.33657743E-05
 -0.33657743E-05  0.32525755E-04 -0.36661319E-04 -0.36661319E-04  0.14853727E-04
  0.31552287E-03  0.70451570E-05  0.70451570E-05  0.33657743E-05  0.33657743E-05
  0.32525755E-04 -0.36661319E-04 -0.36661319E-04  0.14853727E-04  0.31552287E-03
 -0.70451570E-05 -0.70451570E-05
 -0.12265340E-18  0.11016984E-17 -0.14573943E-06  0.31262204E-07  0.31262204E-07
 -0.12172317E-07  0.46395437E-06 -0.22628194E-17 -0.22128302E-16 -0.80244811E-06
 -0.80244811E-06  0.22364428E-06  0.21500947E-06  0.21500947E-06  0.86010546E-08
 -0.33857116E-06  0.37084201E-06  0.37084201E-06  0.80244811E-06  0.80244811E-06
  0.22364428E-06  0.21500947E-06  0.21500947E-06  0.86010546E-08 -0.33857116E-06
 -0.37084201E-06 -0.37084201E-06  0.17396904E-18 -0.25073229E-19  0.79390336E-07
  0.22932980E-07  0.22932980E-07 -0.15738807E-07 -0.15626973E-06 -0.61712369E-18
 -0.99575931E-18 -0.12010403E-04 -0.12010403E-04  0.52064701E-05 -0.10247358E-04
 -0.10247358E-04 -0.12749413E-04  0.10917856E-04 -0.64777530E-05 -0.64777530E-05
  0.12010403E-04  0.12010403E-04  0.52064701E-05 -0.10247358E-04 -0.10247358E-04
 -0.12749413E-04  0.10917856E-04  0.64777530E-05  0.64777530E-05  0.12464874E-05
  0.12464874E-05 -0.73544238E-06  0.66706023E-05  0.66706023E-05  0.99684823E-05
  0.70451570E-05  0.10304521E-03  0.10304521E-03 -0.12464874E-05 -0.12464874E-05
 -0.73544238E-06  0.66706023E-05  0.66706023E-05  0.99684823E-05  0.70451570E-05
 -0.10304521E-03 -0.10304521E-03
 -0.12265340E-18  0.11016984E-17 -0.14573943E-06  0.31262204E-07  0.31262204E-07
 -0.12172317E-07  0.46395437E-06 -0.22628194E-17 -0.22128302E-16 -0.80244811E-06
 -0.80244811E-06  0.22364428E-06  0.21500947E-06  0.21500947E-06  0.86010546E-08
 -0.33857116E-06  0.37084201E-06  0.37084201E-06  0.80244811E-06  0.80244811E-06
  0.22364428E-06  0.21500947E-06  0.21500947E-06  0.86010546E-08 -0.33857116E-06
 -0.37084201E-06 -0.37084201E-06  0.17396904E-18 -0.25073229E-19  0.79390336E-07
  0.22932980E-07  0.22932980E-07 -0.15738807E-07 -0.15626973E-06 -0.61712369E-18
 -0.99575931E-18 -0.12010403E-04 -0.12010403E-04  0.52064701E-05 -0.10247358E-04
 -0.10247358E-04 -0.12749413E-04  0.10917856E-04 -0.64777530E-05 -0.64777530E-05
  0.12010403E-04  0.12010403E-04  0.52064701E-05 -0.10247358E-04 -0.10247358E-04
 -0.12749413E-04  0.10917856E-04  0.64777530E-05  0.64777530E-05  0.12464874E-05
  0.12464874E-05 -0.73544238E-06  0.66706023E-05  0.66706023E-05  0.99684823E-05
  0.70451570E-05  0.10304521E-03  0.10304521E-03 -0.12464874E-05 -0.12464874E-05
 -0.73544238E-06  0.66706023E-05  0.66706023E-05  0.99684823E-05  0.70451570E-05
 -0.10304521E-03 -0.10304521E-03
  0.12987839E-18 -0.45731645E-17  0.24102995E-06 -0.10452700E-06 -0.10452700E-06
 -0.93061185E-09 -0.31802341E-06  0.22091717E-17  0.43090414E-17  0.97430210E-06
  0.97430210E-06 -0.54875731E-07  0.13784645E-06  0.13784645E-06  0.60559628E-07
 -0.35887115E-06 -0.26758095E-06 -0.26758095E-06 -0.97430210E-06 -0.97430210E-06
 -0.54875731E-07  0.13784645E-06  0.13784645E-06  0.60559628E-07 -0.35887115E-06
  0.26758095E-06  0.26758095E-06 -0.64631236E-18 -0.77393031E-19 -0.31803482E-07
  0.13538716E-06  0.13538716E-06 -0.43576345E-07 -0.15797447E-06  0.63470467E-18
  0.51430168E-18 -0.68351060E-05 -0.68351060E-05  0.22492784E-05 -0.67947455E-05
 -0.67947455E-05  0.25035944E-04 -0.42958138E-06  0.35529778E-05  0.35529778E-05
  0.68351060E-05  0.68351060E-05  0.22492784E-05 -0.67947455E-05 -0.67947455E-05
  0.25035944E-04 -0.42958138E-06 -0.35529778E-05 -0.35529778E-05 -0.70874549E-04
 -0.70874549E-04  0.19472778E-06  0.20404604E-06  0.20404604E-06 -0.15367322E-04
  0.33657743E-05 -0.12464874E-05 -0.12464874E-05  0.70874549E-04  0.70874549E-04
  0.19472778E-06  0.20404604E-06  0.20404604E-06 -0.15367322E-04  0.33657743E-05
  0.12464874E-05  0.12464874E-05
  0.12987839E-18 -0.45731645E-17  0.24102995E-06 -0.10452700E-06 -0.10452700E-06
 -0.93061185E-09 -0.31802341E-06  0.22091717E-17  0.43090414E-17  0.97430210E-06
  0.97430210E-06 -0.54875731E-07  0.13784645E-06  0.13784645E-06  0.60559628E-07
 -0.35887115E-06 -0.26758095E-06 -0.26758095E-06 -0.97430210E-06 -0.97430210E-06
 -0.54875731E-07  0.13784645E-06  0.13784645E-06  0.60559628E-07 -0.35887115E-06
  0.26758095E-06  0.26758095E-06 -0.64631236E-18 -0.77393031E-19 -0.31803482E-07
  0.13538716E-06  0.13538716E-06 -0.43576345E-07 -0.15797447E-06  0.63470467E-18
  0.51430168E-18 -0.68351060E-05 -0.68351060E-05  0.22492784E-05 -0.67947455E-05
 -0.67947455E-05  0.25035944E-04 -0.42958138E-06  0.35529778E-05  0.35529778E-05
  0.68351060E-05  0.68351060E-05  0.22492784E-05 -0.67947455E-05 -0.67947455E-05
  0.25035944E-04 -0.42958138E-06 -0.35529778E-05 -0.35529778E-05 -0.70874549E-04
 -0.70874549E-04  0.19472778E-06  0.20404604E-06  0.20404604E-06 -0.15367322E-04
  0.33657743E-05 -0.12464874E-05 -0.12464874E-05  0.70874549E-04  0.70874549E-04
  0.19472778E-06  0.20404604E-06  0.20404604E-06 -0.15367322E-04  0.33657743E-05
  0.12464874E-05  0.12464874E-05
  0.31612833E-18  0.16816010E-16  0.44342830E-06 -0.57618413E-06 -0.57618413E-06
 -0.19858071E-06 -0.46720391E-06  0.63067093E-17  0.45909887E-16  0.34895392E-06
  0.34895392E-06  0.20064850E-05  0.32428787E-06  0.32428787E-06 -0.42437811E-06
 -0.54822015E-06  0.11590993E-06  0.11590993E-06 -0.34895392E-06 -0.34895392E-06
  0.20064850E-05  0.32428787E-06  0.32428787E-06 -0.42437811E-06 -0.54822015E-06
 -0.11590993E-06 -0.11590993E-06  0.29719616E-18  0.23076100E-17  0.38862591E-06
 -0.24616232E-06 -0.24616232E-06 -0.53503375E-07  0.25665892E-06 -0.28261253E-17
 -0.16501731E-17  0.65162973E-05  0.65162973E-05 -0.14773160E-05  0.10364339E-04
  0.10364339E-04 -0.13523760E-05 -0.10834119E-04 -0.12625164E-04 -0.12625164E-04
 -0.65162973E-05 -0.65162973E-05 -0.14773160E-05  0.10364339E-04  0.10364339E-04
 -0.13523760E-05 -0.10834119E-04  0.12625164E-04  0.12625164E-04 -0.19472778E-06
 -0.19472778E-06  0.17390575E-03 -0.22491439E-04 -0.22491439E-04  0.15016402E-04
  0.32525755E-04 -0.73544238E-06 -0.73544238E-06  0.19472778E-06  0.19472778E-06
  0.17390575E-03 -0.22491439E-04 -0.22491439E-04  0.15016402E-04  0.32525755E-04
  0.73544238E-06  0.73544238E-06
 -0.32017564E-18 -0.33641867E-16 -0.19910293E-06  0.57339225E-06  0.57339225E-06
 -0.45654334E-07  0.19605168E-06 -0.18165507E-17 -0.71904952E-16 -0.24598787E-06
 -0.24598787E-06 -0.10797846E-05 -0.61825365E-06 -0.61825365E-06  0.43016331E-06
  0.45248560E-06  0.33793068E-08  0.33793068E-08  0.24598787E-06  0.24598787E-06
 -0.10797846E-05 -0.61825365E-06 -0.61825365E-06  0.43016331E-06  0.45248560E-06
 -0.33793068E-08 -0.33793068E-08 -0.38341046E-18 -0.31766726E-17  0.25654993E-06
  0.13225824E-06  0.13225824E-06  0.59501372E-07  0.72099530E-07  0.42141046E-17
  0.24543546E-17 -0.32574789E-05 -0.32574789E-05  0.26931065E-05 -0.59699497E-05
 -0.59699497E-05  0.74725672E-05  0.13563856E-04  0.14684393E-05  0.14684393E-05
  0.32574789E-05  0.32574789E-05  0.26931065E-05 -0.59699497E-05 -0.59699497E-05
  0.74725672E-05  0.13563856E-04 -0.14684393E-05 -0.14684393E-05 -0.20404604E-06
 -0.20404604E-06 -0.22491439E-04  0.93916559E-04  0.93916559E-04 -0.51366495E-04
 -0.36661319E-04  0.66706023E-05  0.66706023E-05  0.20404604E-06  0.20404604E-06
 -0.22491439E-04  0.93916559E-04  0.93916559E-04 -0.51366495E-04 -0.36661319E-04
 -0.66706023E-05 -0.66706023E-05
 -0.32017564E-18 -0.33641867E-16 -0.19910293E-06  0.57339225E-06  0.57339225E-06
 -0.45654334E-07  0.19605168E-06 -0.18165507E-17 -0.71904952E-16 -0.24598787E-06
 -0.24598787E-06 -0.10797846E-05 -0.61825365E-06 -0.61825365E-06  0.43016331E-06
  0.45248560E-06  0.33793068E-08  0.33793068E-08  0.24598787E-06  0.24598787E-06
 -0.10797846E-05 -0.61825365E-06 -0.61825365E-06  0.43016331E-06  0.45248560E-06
 -0.33793068E-08 -0.33793068E-08 -0.38341046E-18 -0.31766726E-17  0.25654993E-06
  0.13225824E-06  0.13225824E-06  0.59501372E-07  0.72099530E-07  0.42141046E-17
  0.24543546E-17 -0.32574789E-05 -0.32574789E-05  0.26931065E-05 -0.59699497E-05
 -0.59699497E-05  0.74725672E-05  0.13563856E-04  0.14684393E-05  0.14684393E-05
  0.32574789E-05  0.32574789E-05  0.26931065E-05 -0.59699497E-05 -0.59699497E-05
  0.74725672E-05  0.13563856E-04 -0.14684393E-05 -0.14684393E-05 -0.20404604E-06
 -0.20404604E-06 -0.22491439E-04  0.93916559E-04  0.93916559E-04 -0.51366495E-04
 -0.36661319E-04  0.66706023E-05  0.66706023E-05  0.20404604E-06  0.20404604E-06
 -0.22491439E-04  0.93916559E-04  0.93916559E-04 -0.51366495E-04 -0.36661319E-04
 -0.66706023E-05 -0.66706023E-05
  0.77686440E-18  0.27208186E-16  0.15605714E-05 -0.41509018E-06 -0.41509018E-06
 -0.67490168E-07 -0.12179060E-07  0.24099953E-16  0.90629072E-16 -0.34739433E-06
 -0.34739433E-06  0.19043234E-06  0.38442853E-06  0.38442853E-06 -0.27797984E-06
 -0.38179571E-06 -0.26527147E-08 -0.26527147E-08  0.34739433E-06  0.34739433E-06
  0.19043234E-06  0.38442853E-06  0.38442853E-06 -0.27797984E-06 -0.38179571E-06
  0.26527147E-08  0.26527147E-08  0.27751817E-17  0.63231192E-17  0.16627121E-06
 -0.27413879E-06 -0.27413879E-06 -0.22078559E-06 -0.92158083E-07 -0.70938596E-17
 -0.48705398E-17  0.64944426E-06  0.64944426E-06 -0.61403366E-05  0.22227791E-04
  0.22227791E-04 -0.60321488E-04 -0.19946750E-04  0.10437075E-05  0.10437075E-05
 -0.64944426E-06 -0.64944426E-06 -0.61403366E-05  0.22227791E-04  0.22227791E-04
 -0.60321488E-04 -0.19946750E-04 -0.10437075E-05 -0.10437075E-05  0.15367322E-04
  0.15367322E-04  0.15016402E-04 -0.51366495E-04 -0.51366495E-04  0.21445161E-03
  0.14853727E-04  0.99684823E-05  0.99684823E-05 -0.15367322E-04 -0.15367322E-04
  0.15016402E-04 -0.51366495E-04 -0.51366495E-04  0.21445161E-03  0.14853727E-04
 -0.99684823E-05 -0.99684823E-05
  0.87161670E-18  0.72765181E-16 -0.13345161E-06  0.50661519E-07  0.50661519E-07
 -0.12403738E-06 -0.18031357E-05  0.57878388E-18  0.12506604E-15 -0.79967622E-07
 -0.79967622E-07  0.34222406E-06  0.10600567E-05  0.10600567E-05 -0.13411594E-06
 -0.28834100E-05 -0.64027675E-07 -0.64027675E-07  0.79967622E-07  0.79967622E-07
  0.34222406E-06  0.10600567E-05  0.10600567E-05 -0.13411594E-06 -0.28834100E-05
  0.64027675E-07  0.64027675E-07 -0.35556630E-18  0.64950523E-17  0.25668001E-06
 -0.16731628E-06 -0.16731628E-06  0.13812997E-07 -0.13688714E-06 -0.44326956E-17
 -0.10610200E-17  0.68346395E-05  0.68346395E-05 -0.10762696E-04  0.30505645E-04
  0.30505645E-04 -0.49240134E-05  0.26243676E-04  0.70434098E-05  0.70434098E-05
 -0.68346395E-05 -0.68346395E-05 -0.10762696E-04  0.30505645E-04  0.30505645E-04
 -0.49240134E-05  0.26243676E-04 -0.70434098E-05 -0.70434098E-05 -0.33657743E-05
 -0.33657743E-05  0.32525755E-04 -0.36661319E-04 -0.36661319E-04  0.14853727E-04
  0.31552287E-03  0.70451570E-05  0.70451570E-05  0.33657743E-05  0.33657743E-05
  0.32525755E-04 -0.36661319E-04 -0.36661319E-04  0.14853727E-04  0.31552287E-03
 -0.70451570E-05 -0.70451570E-05
  0.12265340E-18 -0.11016984E-17  0.14573943E-06 -0.31262204E-07 -0.31262204E-07
  0.12172317E-07 -0.46395437E-06  0.22628194E-17  0.22128302E-16  0.80244811E-06
  0.80244811E-06 -0.22364428E-06 -0.21500947E-06 -0.21500947E-06 -0.86010546E-08
  0.33857116E-06 -0.37084201E-06 -0.37084201E-06 -0.80244811E-06 -0.80244811E-06
 -0.22364428E-06 -0.21500947E-06 -0.21500947E-06 -0.86010546E-08  0.33857116E-06
  0.37084201E-06  0.37084201E-06 -0.17396904E-18  0.25073229E-19 -0.79390336E-07
 -0.22932980E-07 -0.22932980E-07  0.15738807E-07  0.15626973E-06  0.61712369E-18
  0.99575931E-18  0.12010403E-04  0.12010403E-04 -0.52064701E-05  0.10247358E-04
  0.10247358E-04  0.12749413E-04 -0.10917856E-04  0.64777530E-05  0.64777530E-05
 -0.12010403E-04 -0.12010403E-04 -0.52064701E-05  0.10247358E-04  0.10247358E-04
  0.12749413E-04 -0.10917856E-04 -0.64777530E-05 -0.64777530E-05 -0.12464874E-05
 -0.12464874E-05  0.73544238E-06 -0.66706023E-05 -0.66706023E-05 -0.99684823E-05
 -0.70451570E-05 -0.10304521E-03 -0.10304521E-03  0.12464874E-05  0.12464874E-05
  0.73544238E-06 -0.66706023E-05 -0.66706023E-05 -0.99684823E-05 -0.70451570E-05
  0.10304521E-03  0.10304521E-03
  0.12265340E-18 -0.11016984E-17  0.14573943E-06 -0.31262204E-07 -0.31262204E-07
  0.12172317E-07 -0.46395437E-06  0.22628194E-17  0.22128302E-16  0.80244811E-06
  0.80244811E-06 -0.22364428E-06 -0.21500947E-06 -0.21500947E-06 -0.86010546E-08
  0.33857116E-06 -0.37084201E-06 -0.37084201E-06 -0.80244811E-06 -0.80244811E-06
 -0.22364428E-06 -0.21500947E-06 -0.21500947E-06 -0.86010546E-08  0.33857116E-06
  0.37084201E-06  0.37084201E-06 -0.17396904E-18  0.25073229E-19 -0.79390336E-07
 -0.22932980E-07 -0.22932980E-07  0.15738807E-07  0.15626973E-06  0.61712369E-18
  0.99575931E-18  0.12010403E-04  0.12010403E-04 -0.52064701E-05  0.10247358E-04
  0.10247358E-04  0.12749413E-04 -0.10917856E-04  0.64777530E-05  0.64777530E-05
 -0.12010403E-04 -0.12010403E-04 -0.52064701E-05  0.10247358E-04  0.10247358E-04
  0.12749413E-04 -0.10917856E-04 -0.64777530E-05 -0.64777530E-05 -0.12464874E-05
 -0.12464874E-05  0.73544238E-06 -0.66706023E-05 -0.66706023E-05 -0.99684823E-05
 -0.70451570E-05 -0.10304521E-03 -0.10304521E-03  0.12464874E-05  0.12464874E-05
  0.73544238E-06 -0.66706023E-05 -0.66706023E-05 -0.99684823E-05 -0.70451570E-05
  0.10304521E-03  0.10304521E-03
]

# Standard CIF keys and data

# ===============
# Reflection data
# ===============

_diffrn_radiation_wavelength        0.317295

_reflns_d_resolution_high           4.686000
_reflns_d_resolution_low            0.347477
_reflns_limit_h_max                 14
_reflns_limit_h_min                 -14
_reflns_limit_k_max                 0
_reflns_limit_k_min                 -14
_reflns_limit_l_max                 0
_reflns_limit_l_min                 -13
_reflns_number_gt                   817
_reflns_number_total                817
_reflns_threshold_expression        'F>0'

_reflns_special_details
;
* Specify symmetry and Friedel pair averaging *

. Only reflections which satisfy the threshold expression
  are listed below, and only they are considered observed,
  thus the *_gt, *_all, & *_total data are always the same
;

loop_
    _refln_index_h
    _refln_index_k
    _refln_index_l
    _refln_F_calc
    _refln_F_meas
    _refln_F_sigma
       0      -2      -6        1.200307        1.200600        0.009400
      -1      -1      -6        1.662871        1.707200        0.009500
       0      -1      -6        0.600198        0.723700        0.018900
       0       0      -6        3.857546        3.936700        0.023300
      -4       0      -5        1.587875        1.598800        0.011100
      -3       0      -5        0.493303        0.601900        0.013800
      -2       0      -5        0.842876        0.743900        0.017100
      -1       0      -5        4.469943        4.326700        0.011100
       0       0      -5        6.818442        6.937900        0.025600
       4      -1      -5        1.223925        1.219800        0.011300
       3      -1      -5        1.276796        1.281600        0.010800
       2      -1      -5        3.649553        3.651500        0.009700
       1      -1      -5        4.101337        4.084300        0.013400
      -4      -2      -5        2.242891        2.282200        0.006900
      -3      -2      -5        2.774999        2.737000        0.009600
      -2      -2      -5        3.114200        3.098400        0.013200
       3      -3      -5        3.626357        3.623300        0.011500
      -2      -5      -4        2.739793        2.727800        0.010000
      -1      -5      -4        3.863617        3.896200        0.011400
       0      -5      -4        4.225047        4.200000        0.013300
       4      -4      -4        2.844225        2.920900        0.010500
       3      -4      -4        0.577236        0.550400        0.014200
       2      -4      -4        4.012791        4.036100        0.010800
       1      -4      -4        6.468347        6.496100        0.013300
       0      -4      -4        2.386332        2.410500        0.009600
      -3      -3      -4        3.921887        3.935800        0.014600
      -2      -3      -4        3.684672        3.661500        0.009000
      -1      -3      -4        3.776946        3.773900        0.008800
       0      -3      -4       10.101577       10.146500        0.018300
       2      -2      -4        6.595524        6.530000        0.016000
       1      -2      -4        6.689155        6.669800        0.010600
       0      -2      -4        4.536127        4.445300        0.009300
      -1      -1      -4        6.671158        6.530900        0.013800
       0      -1      -4        1.443755        1.475500        0.009400
       0       0      -4        5.802959        5.409500        0.016300
      -6       0      -3        0.474131        0.477200        0.013300
      -5       0      -3        2.884214        2.892100        0.009700
      -4       0      -3        8.436774        8.399300        0.014800
      -3       0      -3        3.351086        3.376400        0.007900
      -2       0      -3        7.174869        6.980000        0.009300
      -1       0      -3        9.149155        9.276900        0.010000
       0       0      -3        3.558943        3.656600        0.010800
       6      -1      -3        3.236658        3.214100        0.010300
       5      -1      -3        3.141138        3.168200        0.008900
       4      -1      -3        3.556639        3.588300        0.008100
       3      -1      -3        8.230853        8.058500        0.010700
       2      -1      -3        8.288060        8.206300        0.009300
       1      -1      -3        3.515797        3.374000        0.008100
      -6      -2      -3        2.455650        2.467900        0.008000
      -5      -2      -3        4.598217        4.578300        0.011000
      -4      -2      -3        1.984746        2.036700        0.008000
      -3      -2      -3        5.022938        5.016000        0.008600
      -2      -2      -3        5.446187        5.197800        0.010800
       5      -3      -3        1.803593        1.821700        0.009200
       4      -3      -3        4.124609        4.061200        0.009600
       3      -3      -3        0.710855        0.709200        0.020600
      -5      -4      -3        2.436395        2.373600        0.006900
      -4      -4      -3        0.346711        0.396700        0.018300
      -1      -7      -2        1.215035        1.191100        0.008300
       0      -7      -2        2.225824        2.245900        0.007900
       3      -6      -2        0.903267        0.949200        0.012900
       2      -6      -2        1.658131        1.671500        0.009500
       1      -6      -2        2.153149        2.148300        0.008700
       0      -6      -2        1.613711        1.585700        0.010600
      -5      -5      -2        2.194008        2.215700        0.009800
      -4      -5      -2        0.859664        0.825900        0.014900
      -3      -5      -2        1.495818        1.487200        0.009600
      -2      -5      -2        2.816267        2.698200        0.008100
      -1      -5      -2        2.808255        2.847600        0.007800
       0      -5      -2        0.290386        0.296800        0.025600
       4      -4      -2        2.062599        1.983200        0.011900
       3      -4      -2        4.348149        4.287800        0.008800
       2      -4      -2        2.358417        2.310200        0.007100
       1      -4      -2        1.660149        1.642200        0.007800
       0      -4      -2        2.698787        2.745500        0.007600
      -3      -3      -2        2.918424        2.793800        0.009700
      -2      -3      -2        3.219734        3.286300        0.006300
      -1      -3      -2        3.832468        3.820800        0.006000
       0      -3      -2        4.172601        4.182600        0.006700
       2      -2      -2        7.455745        7.331100        0.010600
       1      -2      -2        5.386058        5.446000        0.006400
       0      -2      -2        2.805012        2.853900        0.005700
      -1      -1      -2        7.284732        7.205300        0.008100
       0      -1      -2       12.309227       12.258600        0.010900
      -7       0      -1        2.859177        2.892800        0.011400
      -6       0      -1        2.115693        2.094900        0.009700
      -5       0      -1        0.339708        0.320900        0.016500
      -4       0      -1        9.592832        9.785100        0.012000
      -3       0      -1        9.615964        9.572500        0.008900
      -2       0      -1       13.801103       13.926200        0.009200
      -1       0      -1       12.085954       12.126800        0.007200
       0       0      -1        3.619894        3.629700        0.006700
       7      -1      -1        1.764069        1.769000        0.009800
       6      -1      -1        2.335023        2.362300        0.008400
       5      -1      -1        5.414509        5.456400        0.009300
       4      -1      -1        3.321695        3.382100        0.006300
       3      -1      -1       11.692293       11.816900        0.009400
       2      -1      -1        7.081341        6.973600        0.005300
       1      -1      -1       16.634014       16.674900        0.015000
      -6      -2      -1        3.676534        3.675400        0.010100
      -5      -2      -1        2.641076        2.659100        0.007800
      -4      -2      -1        4.981058        5.022800        0.007700
      -3      -2      -1        2.226673        2.243900        0.007000
      -2      -2      -1       13.891846       14.001400        0.013800
       6      -3      -1        0.949734        0.932300        0.013200
       5      -3      -1        3.406773        3.411100        0.008800
       4      -3      -1        4.566579        4.495400        0.008300
       3      -3      -1        2.714994        2.823600        0.009100
      -6      -4      -1        3.615926        3.637400        0.008300
      -5      -4      -1        0.676016        0.685000        0.015000
      -4      -4      -1        2.156893        2.160700        0.011400
       5      -5      -1        3.904547        3.917900        0.017100
      -2      -7       0        0.464948        0.520800        0.008500
      -1      -7       0        5.480766        5.558100        0.015700
       4      -6       0        1.589011        1.557100        0.010500
       2      -6       0        4.720130        4.798700        0.011000
       1      -6       0        2.273676        2.285700        0.009500
       0      -6       0        7.568424        7.770900        0.025900
      -5      -5       0        2.626636        2.576400        0.014000
      -4      -5       0        1.711134        1.683600        0.009400
      -3      -5       0        6.531791        6.509500        0.012200
      -2      -5       0        4.576470        4.586000        0.008800
      -1      -5       0        6.299675        6.440800        0.011400
       4      -4       0        9.031723        9.024700        0.021100
       3      -4       0        1.877810        1.789300        0.007700
       2      -4       0        9.554072        9.571600        0.011200
       1      -4       0        2.565527        2.646200        0.007100
       0      -4       0        2.203100        2.325800        0.012100
      -3      -3       0       14.693050       14.673800        0.020600
      -2      -3       0        4.038287        4.132100        0.005700
      -1      -3       0        5.314426        5.344700        0.006300
       2      -2       0       14.870818       14.935000        0.013700
       1      -2       0       14.948783       14.919000        0.009300
       0      -2       0       12.310263       12.367700        0.011900
      -2     -11      -5        0.599378        0.605200        0.012100
       5     -10      -5        0.619068        0.597800        0.013900
       4     -10      -5        0.659886        0.626900        0.014100
       3     -10      -5        0.890986        0.872500        0.018000
      -6      -9      -5        0.691745        0.666700        0.014700
      -5      -9      -5        0.775706        0.797200        0.017800
       7      -8      -5        0.800061        0.799100        0.017200
      10      -2      -5        0.302632        0.237500        0.031300
     -11       0      -4        1.316457        1.231900        0.016400
      11      -1      -4        0.610463        0.606900        0.011300
     -11      -2      -4        0.698534        0.639400        0.016800
     -11      -3      -4        0.732669        0.727100        0.018800
     -11      -4      -4        0.502887        0.518000        0.012300
      10      -5      -4        0.648310        0.610100        0.012800
     -10      -6      -4        0.478159        0.477200        0.013300
      -9      -6      -4        0.753470        0.700000        0.015400
       9      -7      -4        0.536789        0.538600        0.012700
      -8      -8      -4        0.596035        0.584400        0.018300
       2     -12      -3        0.420534        0.409000        0.015400
       1     -12      -3        0.528054        0.525600        0.012100
       0     -12      -3        0.604398        0.576700        0.014400
      -5     -11      -3        0.693185        0.714700        0.016400
      -4     -11      -3        0.592311        0.561100        0.012200
      -3     -11      -3        0.260302        0.298500        0.025400
       7     -10      -3        0.519079        0.558400        0.013100
       6     -10      -3        0.919847        0.918400        0.017100
      -8      -9      -3        0.630851        0.614200        0.015900
      -7      -9      -3        0.980327        0.987500        0.016400
       8      -8      -3        0.935268        0.968300        0.023700
     -12      -2      -2        0.317446        0.347500        0.027400
      10      -7      -2        0.528311        0.563700        0.013000
      -9      -8      -2        0.575267        0.627700        0.013300
       4     -12      -1        0.559703        0.531200        0.013800
       3     -12      -1        0.301734        0.296800        0.022500
       2     -12      -1        0.620839        0.592000        0.012400
       1     -12      -1        0.273486        0.281400        0.026900
       0     -12      -1        0.642626        0.603600        0.017800
      -6     -11      -1        0.250416        0.290100        0.023000
      -5     -11      -1        0.699122        0.712700        0.014400
       7     -10      -1        0.367051        0.353200        0.023100
      -8      -9      -1        0.383804        0.405400        0.015600
     -12       0       0        0.967156        0.988000        0.018400
     -12      -2       0        1.095711        1.072600        0.015600
     -12      -4       0        0.717079        0.677000        0.011600
      11      -5       0        0.837757        0.785300        0.017500
     -11      -6       0        0.505583        0.499500        0.013700
      10      -7       0        0.602508        0.598600        0.014700
      -9      -8       0        0.753190        0.751900        0.015600
       9      -9       0        0.396605        0.331500        0.025900
       1      -3     -11        2.316725        2.306600        0.014300
       0      -3     -11        0.574593        0.634000        0.016200
      -2      -2     -11        1.664922        1.652100        0.018800
      -1      -2     -11        1.339888        1.368600        0.014000
       0      -2     -11        2.077700        2.064400        0.016000
       1      -1     -11        1.253232        1.272300        0.019700
       0      -1     -11        1.123942        1.186100        0.016600
       6       0     -10        0.856377        0.851300        0.020100
       5       0     -10        0.697412        0.721600        0.020300
      -5      -1     -10        1.201453        1.239500        0.014300
       6      -2     -10        0.893964        0.907600        0.017300
       5      -2     -10        0.335111        0.341800        0.019700
      -5      -3     -10        0.902742        0.918400        0.017100
      -4      -3     -10        0.529451        0.498500        0.013700
       5      -4     -10        0.444379        0.497500        0.013700
       4      -4     -10        0.925649        0.851300        0.025800
      -2      -8      -9        0.458932        0.434800        0.014600
      -1      -8      -9        0.417362        0.461400        0.013700
       4      -7      -9        0.808686        0.732500        0.016700
       3      -7      -9        0.755144        0.752500        0.016900
       2      -7      -9        0.590306        0.523700        0.014000
       1      -7      -9        0.287900        0.316200        0.019700
      -5      -6      -9        0.827473        0.863400        0.017000
      -4      -6      -9        0.769905        0.782800        0.017500
       5      -5      -9        0.730889        0.705000        0.022100
       9       0      -8        1.134061        1.144900        0.017200
       9      -2      -8        1.149068        1.106600        0.015500
      -9      -3      -8        0.382226        0.351800        0.019200
      -8      -3      -8        1.437869        1.431500        0.013800
       8      -4      -8        0.209896        0.222500        0.033100
      -8      -5      -8        0.943720        0.931800        0.016800
      -7      -5      -8        0.306281        0.293500        0.025800
       7      -6      -8        0.844289        0.834800        0.018200
       6      -6      -8        0.517604        0.475100        0.019400
      -3     -10      -7        1.261576        1.232700        0.014800
      -1     -10      -7        0.691088        0.702900        0.015300
       5      -9      -7        0.507640        0.521800        0.013100
       4      -9      -7        1.387844        1.413100        0.013900
      -7      -8      -7        1.131941        1.113300        0.015500
      -6      -8      -7        0.532687        0.555800        0.014100
       7      -7      -7        0.438116        0.529300        0.018400
      11       0      -6        0.433629        0.365600        0.022300
      11      -2      -6        0.305165        0.316200        0.024100
     -11      -3      -6        0.355644        0.387900        0.016200
      10      -4      -6        0.514229        0.551300        0.013300
     -10      -5      -6        0.302652        0.295200        0.031800
       9      -6      -6        0.408845        0.398000        0.015900
      -8      -7      -6        0.321904        0.378900        0.021600
      -1     -12      -5        0.407641        0.398000        0.017000
       4     -11      -5        0.543593        0.501500        0.013600
       3     -11      -5        0.456919        0.422100        0.015000
       8      -9      -5        0.434775        0.441600        0.014300
      12       0      -4        0.462178        0.441600        0.016500
     -12      -1      -4        0.643515        0.605200        0.012900
      12      -2      -4        0.559027        0.534000        0.012800
     -12      -3      -4        0.518583        0.518000        0.013200
      12      -4      -4        0.372611        0.374900        0.016800
     -11      -5      -4        0.453672        0.469900        0.013500
      11      -6      -4        0.937367        0.927500        0.017400
     -10      -7      -4        1.125624        1.122200        0.015300
       9      -8      -4        1.163802        1.182300        0.015400
       1     -13      -3        0.304645        0.308300        0.021700
       0     -13      -3        0.359110        0.341800        0.023800
      -5     -12      -3        0.389226        0.360100        0.018800
      -4     -12      -3        0.553084        0.560200        0.013100
      -3     -12      -3        0.460069        0.417400        0.015100
       7     -11      -3        0.729806        0.711300        0.017200
       6     -11      -3        0.457531        0.481300        0.013200
      -8     -10      -3        0.806946        0.850700        0.017300
       9      -9      -3        0.811072        0.879300        0.024400
     -12      -5      -2        0.284704        0.306700        0.024800
      11      -6      -2        0.412266        0.449400        0.014100
     -11      -7      -2        0.294302        0.298500        0.022400
      10      -8      -2        0.362984        0.400500        0.015800
      -9      -9      -2        0.402516        0.396700        0.023000
       3     -13      -1        0.445544        0.432600        0.014600
       1     -13      -1        0.408585        0.387900        0.016200
       0     -13      -1        0.293631        0.283200        0.036100
      -6     -12      -1        0.534098        0.517000        0.012300
       7     -11      -1        0.650438        0.633200        0.014700
      -8     -10      -1        0.733214        0.707800        0.016600
       9      -9      -1        0.765683        0.803400        0.022500
     -13      -1       0        0.826931        0.812000        0.017500
     -13      -3       0        0.521539        0.482300        0.014200
     -12      -5       0        0.399718        0.343200        0.023700
      12      -6       0        0.389552        0.380200        0.016600
     -11      -7       0        0.354264        0.349000        0.022000
      10      -8       0        0.364522        0.314600        0.025700
       5       0     -11        0.633845        0.664500        0.016200
       4       0     -11        2.432920        2.428300        0.017100
      -5      -1     -11        1.317183        1.316200        0.013800
      -4      -1     -11        0.724837        0.747900        0.015700
       5      -2     -11        1.081596        1.109800        0.014600
       4      -2     -11        1.107292        1.084900        0.015400
       3      -2     -11        0.928463        0.966700        0.016200
      -4      -3     -11        0.919186        1.016600        0.015500
      -3      -3     -11        0.559307        0.554000        0.020200
       4      -4     -11        0.593383        0.589500        0.019800
       3      -7     -10        0.439125        0.512200        0.012400
       2      -7     -10        0.538996        0.616600        0.011900
       1      -7     -10        0.675765        0.634800        0.016200
       0      -7     -10        0.342078        0.305100        0.032400
      -5      -6     -10        0.647996        0.693600        0.016200
      -4      -6     -10        0.615971        0.623000        0.014100
      -3      -6     -10        0.826437        0.875900        0.017900
       5      -5     -10        0.904529        0.894900        0.024600
       9       0      -9        0.384645        0.340300        0.023900
      -9      -1      -9        0.324646        0.263200        0.025100
       9      -2      -9        0.470386        0.469900        0.013500
      -8      -3      -9        0.635451        0.603600        0.013000
      -5      -8      -9        0.312102        0.288400        0.026300
      -3     -10      -8        0.600001        0.534900        0.012800
      -2     -10      -8        0.312044        0.288400        0.023100
      -1     -10      -8        0.918652        0.936600        0.016800
       5      -9      -8        0.608427        0.607700        0.014500
       4      -9      -8        0.782911        0.780900        0.016300
      -7      -8      -8        0.600329        0.594500        0.012400
      -6      -8      -8        0.738329        0.739200        0.015900
       7      -7      -8        0.852094        0.829500        0.023000
      11       0      -7        0.494720        0.515100        0.014200
      11      -2      -7        0.846765        0.851900        0.017800
      10      -4      -7        0.263444        0.276100        0.027300
     -10      -5      -7        0.882606        0.876500        0.017300
       9      -6      -7        0.959967        0.962100        0.016800
      -7     -10      -6        0.452540        0.429100        0.015900
       8      -9      -6        0.508784        0.530200        0.012900
     -12      -3      -5        0.382748        0.374900        0.020600
      11      -6      -5        0.305416        0.306700        0.024800
     -10      -7      -5        0.346980        0.364200        0.018600
       2     -13      -4        0.447282        0.396700        0.018300
       1     -13      -4        0.370450        0.354600        0.017700
       0     -13      -4        0.365447        0.327000        0.022000
      -6     -12      -4        0.300635        0.272500        0.027700
      -5     -12      -4        0.713730        0.735200        0.014700
       7     -11      -4        0.333209        0.350400        0.017900
      -9     -10      -4        0.418802        0.417400        0.016300
      -8     -10      -4        0.385447        0.405400        0.015600
       9      -9      -4        0.425147        0.465600        0.018800
      13      -2      -3        0.336792        0.300100        0.025300
     -13      -3      -3        0.470161        0.462400        0.013700
      13      -4      -3        0.264757        0.255600        0.029300
      12      -6      -3        0.570104        0.606900        0.012900
      11      -8      -3        0.267307        0.255600        0.036200
     -10      -9      -3        0.286180        0.265100        0.028400
      14      -2      -1        0.313038        0.309900        0.024600
     -13      -5      -1        0.412065        0.402900        0.015700
     -11      -9      -1        0.303903        0.309900        0.021600
      10     -10      -1        0.304714        0.349000        0.031200
      -2     -14       0        0.432634        0.413800        0.015300
       0     -14       0        0.618284        0.572400        0.013700
       5     -13       0        0.362367        0.350400        0.019300
       9     -11       0        0.713739        0.723000        0.016200
     -10     -10       0        0.758233        0.762300        0.023000
       0      -4     -12        0.530978        0.475100        0.015400
       3      -3     -12        1.380087        1.393300        0.018400
       2      -3     -12        0.599705        0.634800        0.013900
       1      -3     -12        0.778210        0.761000        0.016100
      -2      -2     -12        1.326969        1.311000        0.018700
      -1      -2     -12        0.607958        0.641700        0.015200
       0      -2     -12        1.003075        1.023000        0.017300
       1      -1     -12        1.553476        1.557400        0.018600
       0      -1     -12        1.072533        1.112000        0.016800
       0       0     -12        1.952488        1.933200        0.026700
       7       0     -11        0.610310        0.686500        0.017800
       6       0     -11        0.625648        0.658500        0.014900
      -7      -1     -11        0.592208        0.592800        0.011600
      -6      -1     -11        0.793266        0.843100        0.017400
       6      -2     -11        1.072765        1.074400        0.015100
      -6      -3     -11        0.453374        0.470900        0.013500
      -5      -3     -11        0.948815        0.896000        0.017500
       5      -4     -11        0.600601        0.686500        0.015000
      -5      -5     -11        1.167206        1.177700        0.020000
       0      -9     -10        0.376108        0.436000        0.015600
      -4      -8     -10        0.350869        0.406600        0.014400
      -3      -8     -10        0.595442        0.628500        0.014000
      -2      -8     -10        0.588063        0.616600        0.012700
       0      -8     -10        0.536534        0.495500        0.014800
       5      -7     -10        0.397187        0.391700        0.016100
       4      -7     -10        0.817906        0.873100        0.016800
      -6      -6     -10        0.467400        0.443900        0.019600
      10       0      -9        0.342746        0.314600        0.031500
     -10      -1      -9        0.353778        0.265100        0.028400
       8      -6      -9        0.337599        0.356000        0.019000
      -7      -7      -9        0.362869        0.404200        0.021500
       3     -11      -8        0.411125        0.335900        0.020000
       2     -11      -8        0.555304        0.527400        0.013000
       0     -11      -8        0.706788        0.700700        0.017400
      -5     -10      -8        0.540648        0.512200        0.013400
      -4     -10      -8        0.557414        0.507300        0.012500
       6      -9      -8        0.625449        0.623000        0.011800
     -12      -1      -7        0.575599        0.597800        0.013100
     -12      -3      -7        0.556001        0.531200        0.013800
      11      -4      -7        0.785751        0.727100        0.017500
      -3     -12      -6        0.196663        0.263200        0.033600
       6     -11      -6        0.376719        0.398000        0.015900
      13       0      -5        0.335684        0.305100        0.026400
     -11      -7      -5        0.201021        0.284900        0.031300
       0     -14      -4        0.253690        0.276100        0.035400
       4     -13      -4        0.560705        0.545000        0.013500
      -7     -12      -4        0.364544        0.356000        0.016300
       8     -11      -4        0.416259        0.398000        0.017000
     -10     -10      -4        0.365836        0.362900        0.023800
      14      -2      -3        0.315280        0.296800        0.025600
     -13      -5      -3        0.439455        0.424500        0.014900
     -12      -7      -3        0.239696        0.243700        0.026900
      -8     -12      -2        0.222333        0.291800        0.030600
       9     -11      -2        0.261836        0.245700        0.037400
      14      -4      -1        0.306203        0.267000        0.034800
     -13      -7      -1        0.220397        0.220200        0.033400
      12      -8      -1        0.276212        0.241700        0.030800
      11     -10      -1        0.345910        0.328500        0.020500
      -4     -14       0        0.293960        0.267000        0.024800
       7     -13       0        0.537888        0.507300        0.013500
      -8     -12       0        0.632441        0.650900        0.013500
       1      -6     -12        0.550259        0.558400        0.011400
       0      -6     -12        0.996137        1.000400        0.014700
      -3      -5     -12        0.901406        0.835400        0.015300
      -2      -5     -12        0.587212        0.634000        0.011600
      -1      -5     -12        0.950478        0.894400        0.014800
       0      -5     -12        0.266849        0.288400        0.026300
       0       0     -13        0.483278        0.419800        0.027400
       4      -2     -12        1.118710        1.098500        0.014300
      -4      -3     -12        0.852936        0.849000        0.017300
       4      -4     -12        1.083365        1.075300        0.020500
      -2      -8     -11        0.871198        0.878200        0.016200
      -1      -8     -11        0.482736        0.522700        0.012200
       0      -8     -11        0.540422        0.534900        0.013700
       4      -7     -11        0.337197        0.373600        0.015600
       3      -7     -11        1.294140        1.265200        0.013200
       2      -7     -11        0.436675        0.466700        0.012600
      -5      -6     -11        0.507734        0.522700        0.012200
      -4      -6     -11        1.326982        1.297700        0.013700
      -9      -1     -10        0.440742        0.442700        0.014300
       9      -2     -10        0.336245        0.328500        0.020500
      -9      -3     -10        0.347154        0.293500        0.025800
      -7      -7     -10        0.453946        0.452700        0.018200
     -12      -1      -8        0.451727        0.428000        0.013700
      12      -2      -8        0.235164        0.249700        0.028100
      11      -4      -8        0.436112        0.385400        0.017600
     -10      -7      -8        0.579342        0.574200        0.011900
       9      -8      -8        0.623454        0.605200        0.013700
       0     -13      -7        0.488153        0.445000        0.016400
      -8     -10      -7        0.262625        0.226900        0.026800
     -14      -3      -4        0.407891        0.327000        0.027600
      13      -6      -4        0.300117        0.286700        0.026400
      12      -8      -4        0.315575        0.306700        0.024800
     -11      -9      -4        0.355805        0.360100        0.021400
      -4     -14      -3        0.338964        0.328500        0.023300
      -9     -12      -3        0.296841        0.259500        0.034000
      10     -11      -3        0.322494        0.279700        0.031800
      11     -10      -2        0.238020        0.235500        0.031500
       8     -13      -1        0.256829        0.237500        0.031300
      -9     -12      -1        0.311292        0.247700        0.037200
      14      -6       0        0.419515        0.405400        0.014400
       3       0     -13        0.820092        0.801600        0.019500
      -4      -1     -13        0.490250        0.482300        0.012200
      -2      -1     -13        0.455532        0.456000        0.012800
      -1      -1     -13        0.512638        0.476100        0.018400
       2      -2     -13        0.622347        0.615000        0.019800
       1      -7     -12        0.793606        0.804000        0.015900
       0      -7     -12        0.589807        0.549500        0.018600
      -4      -6     -12        0.473995        0.421000        0.012700
      -2      -6     -12        0.768452        0.735200        0.017300
       5      -5     -12        0.645833        0.610900        0.021500
       4      -5     -12        0.317347        0.334500        0.015900
       9       0     -11        0.301642        0.306700        0.020300
      -9      -1     -11        0.697846        0.672600        0.014600
       9      -2     -11        0.375158        0.365600        0.014600
      -8      -3     -11        0.350728        0.376300        0.015500
       8      -4     -11        0.717935        0.690800        0.014900
      -7      -5     -11        0.717006        0.685700        0.015700
       7      -6     -11        0.415206        0.437100        0.012300
       6      -6     -11        0.630594        0.606000        0.022500
      -4     -10     -10        0.312946        0.313100        0.024400
      -1     -10     -10        0.361461        0.417400        0.019700
       5      -9     -10        0.419863        0.432600        0.017900
      -6      -8     -10        0.460558        0.489500        0.017900
      -4       0      -7        0.476621        0.394200        0.016000
      -3       0      -7        0.609444        0.700700        0.016100
      -2       0      -7        0.503238        0.515100        0.012300
      -1       0      -7        6.419393        6.515800        0.025600
       0       0      -7        0.570395        0.511200        0.024600
       3      -1      -7        1.241688        1.227900        0.012400
       2      -1      -7        3.170759        3.255000        0.013100
       1      -1      -7        2.376182        2.365100        0.015400
      -3      -2      -7        3.918443        3.979500        0.016000
      -2      -2      -7        3.178988        3.147100        0.018300
      -1      -4      -7        1.773797        1.827600        0.009500
      -3      -5      -6        0.710680        0.748600        0.015100
      -2      -5      -6        2.423673        2.464100        0.011800
      -1      -5      -6        0.951943        0.866800        0.015800
       0      -5      -6        1.388402        1.396500        0.013800
       4      -4      -6        1.554947        1.591400        0.016700
       3      -4      -6        0.995563        1.061900        0.013400
       2      -4      -6        1.025846        1.054400        0.013500
       1      -4      -6        2.336502        2.375300        0.010800
       0      -4      -6        2.761658        2.765100        0.013000
      -3      -3      -6        2.276417        2.340700        0.015200
      -2      -3      -6        1.645955        1.728200        0.010300
      -1      -3      -6        2.258746        2.266100        0.010000
       0      -3      -6        3.190384        3.268000        0.013300
       2      -2      -6        1.679865        1.646400        0.014400
       1      -2      -6        3.600960        3.696600        0.011900
      -7       0      -5        2.450250        2.484100        0.014100
      -6       0      -5        2.090055        2.075200        0.012600
      -5       0      -5        1.393850        1.360300        0.012700
       7      -1      -5        1.440045        1.422900        0.011800
       6      -1      -5        2.521566        2.516400        0.011400
       5      -1      -5        1.745789        1.825700        0.010000
      -6      -2      -5        1.169580        1.233900        0.012400
      -5      -2      -5        3.026646        3.000000        0.011500
       6      -3      -5        0.643269        0.566400        0.012100
       5      -3      -5        1.481236        1.541700        0.010900
       4      -3      -5        3.584900        3.608000        0.012500
      -5      -4      -5        1.634766        1.596900        0.011400
      -4      -4      -5        2.363579        2.340000        0.015200
       5      -5      -5        1.248858        1.280400        0.018000
      -3      -7      -4        1.327783        1.343000        0.012500
      -2      -7      -4        2.883984        2.859600        0.012300
      -1      -7      -4        2.046770        2.125600        0.010900
       0      -7      -4        0.430970        0.421000        0.015000
       5      -6      -4        3.025930        3.025500        0.013500
       4      -6      -4        1.801084        1.838400        0.011300
       3      -6      -4        3.907448        3.863100        0.014100
       2      -6      -4        2.747158        2.726700        0.011100
       1      -6      -4        1.721819        1.692400        0.010200
       0      -6      -4        2.665670        2.761300        0.012200
      -5      -5      -4        2.575455        2.613800        0.016400
      -4      -5      -4        2.892974        2.880500        0.011500
      -3      -5      -4        2.841905        2.890600        0.010600
      -8       0      -3        0.796518        0.883800        0.017700
      -7       0      -3        2.351211        2.272800        0.011700
       8      -1      -3        1.807687        1.765400        0.011200
       7      -1      -3        0.721457        0.772000        0.015200
      -8      -2      -3        2.202065        2.246100        0.011600
      -7      -2      -3        1.635636        1.634600        0.010600
       8      -3      -3        1.312077        1.343400        0.012500
       7      -3      -3        3.697234        3.709400        0.014000
       6      -3      -3        1.710061        1.679700        0.010300
      -7      -4      -3        1.258820        1.290000        0.012600
      -6      -4      -3        3.754913        3.810400        0.013500
       6      -5      -3        2.017609        1.991700        0.011200
       5      -5      -3        3.115012        3.174800        0.016800
      -6      -6      -3        1.302658        1.316200        0.018300
       3      -8      -2        0.913286        0.924900        0.015400
       2      -8      -2        1.200338        1.237100        0.012300
       1      -8      -2        0.800987        0.782200        0.013800
       0      -8      -2        0.895797        0.894900        0.016400
      -5      -7      -2        0.194239        0.311500        0.037500
      -4      -7      -2        1.311901        1.335300        0.012200
      -3      -7      -2        1.199388        1.193600        0.012400
      -2      -7      -2        0.348430        0.402900        0.013300
       6      -6      -2        0.688308        0.650900        0.018700
       5      -6      -2        1.258001        1.240300        0.012300
       4      -6      -2        1.593607        1.605900        0.010400
      -8       0      -1        1.493035        1.494800        0.012500
       9      -1      -1        1.902779        1.887100        0.011500
       8      -1      -1        1.005056        0.973400        0.014100
      -9      -2      -1        0.479685        0.477200        0.012300
      -8      -2      -1        2.531377        2.537100        0.011300
       8      -3      -1        0.621755        0.615800        0.011200
       7      -3      -1        3.215719        3.243300        0.011600
      -8      -4      -1        1.754510        1.694700        0.011600
      -7      -4      -1        1.159312        1.152200        0.012400
       7      -5      -1        1.792041        1.767600        0.011400
       6      -5      -1        0.857583        0.918400        0.014400
      -7      -6      -1        1.491414        1.471800        0.012400
      -6      -6      -1        1.676419        1.635800        0.016300
      -2      -9       0        1.224145        1.170500        0.013000
      -1      -9       0        1.919133        1.878100        0.011300
       4      -8       0        1.990962        2.019800        0.011500
       3      -8       0        1.068821        1.052500        0.014000
       2      -8       0        2.191809        2.142300        0.010800
       1      -8       0        1.201474        1.214500        0.012200
       0      -8       0        4.129240        4.108900        0.016200
      -6      -7       0        0.638595        0.713300        0.014400
      -5      -7       0        2.432357        2.391500        0.011600
      -4      -7       0        0.981541        0.992000        0.013900
      -3      -7       0        1.149319        1.163800        0.012300
       6      -6       0        3.029341        2.889700        0.017600
       5      -6       0        2.077679        2.022800        0.010500
      -2      -4      -8        1.392599        1.351900        0.013100
      -1      -4      -8        3.127517        3.151300        0.015500
       0      -4      -8        1.039878        1.048300        0.017300
       3      -3      -8        2.428013        2.350600        0.018700
       2      -3      -8        2.646768        2.630800        0.013500
       1      -3      -8        0.628896        0.682100        0.012900
       0      -3      -8        3.900651        3.909800        0.020200
      -2      -2      -8        1.362346        1.345300        0.017900
      -1      -2      -8        3.839135        3.828300        0.016800
       1      -1      -8        2.136300        2.100300        0.016700
       0      -1      -8        2.396938        2.455200        0.014300
       0       0      -8        3.895069        3.803500        0.032500
       5       0      -7        2.448959        2.498600        0.014800
      -6      -1      -7        3.250301        3.272600        0.015800
      -5      -1      -7        1.764868        1.726000        0.012000
       6      -2      -7        1.168788        1.129200        0.014400
       5      -2      -7        3.133041        3.170600        0.015000
       4      -2      -7        1.295926        1.289700        0.012600
      -6      -3      -7        1.294624        1.324500        0.012300
      -5      -3      -7        0.872225        0.888800        0.016000
      -4      -3      -7        4.833464        4.863200        0.020500
      -3      -3      -7        0.399145        0.387900        0.027100
       5      -4      -7        2.228060        2.236800        0.013200
       4      -4      -7        0.353754        0.338900        0.032100
       3      -7      -6        1.196235        1.155200        0.014500
       2      -7      -6        0.973796        0.967700        0.015700
       1      -7      -6        0.916094        1.000900        0.014700
      -5      -6      -6        1.401393        1.434300        0.013100
      -4      -6      -6        1.161967        1.132300        0.014300
      -3      -6      -6        1.334249        1.315100        0.013100
      -2      -6      -6        0.615915        0.552200        0.012400
      -1      -6      -6        1.338703        1.372200        0.012200
       0      -6      -6        1.328477        1.385900        0.014200
       5      -5      -6        0.911188        0.895500        0.021800
       4      -5      -6        1.197699        1.246700        0.013000
       8       0      -5        1.021451        0.941300        0.017700
      -8      -1      -5        1.410297        1.392300        0.012400
       8      -2      -5        0.712145        0.744600        0.015100
       7      -2      -5        0.942316        0.921600        0.015400
      -8      -3      -5        0.719962        0.714700        0.014400
      -7      -3      -5        0.835885        0.798500        0.016600
       7      -4      -5        0.553205        0.581000        0.011000
       6      -4      -5        0.948288        0.924900        0.015900
      -7      -5      -5        0.237690        0.274300        0.032400
      -6      -5      -5        1.257728        1.227900        0.013200
       6      -6      -5        0.609648        0.530200        0.016500
       3      -9      -4        1.027789        1.018100        0.015900
       2      -9      -4        1.747448        1.752100        0.012400
       1      -9      -4        1.301943        1.279200        0.013500
       0      -9      -4        1.939250        1.952100        0.014100
      -5      -8      -4        0.966783        0.879300        0.016200
      -4      -8      -4        1.080440        1.051100        0.015000
      -3      -8      -4        2.675667        2.627400        0.013300
      -2      -8      -4        1.706554        1.734000        0.011700
      -1      -8      -4        1.647809        1.691500        0.011700
       0      -8      -4        1.616625        1.639200        0.013500
       6      -7      -4        0.617705        0.592800        0.010800
       5      -7      -4        1.188924        1.184400        0.013700
       4      -7      -4        3.446105        3.371500        0.014900
      -6      -6      -4        1.355814        1.380800        0.018200
      10       0      -3        1.765316        1.753000        0.014600
       9       0      -3        1.043615        0.999900        0.017700
     -10      -1      -3        0.785501        0.775800        0.014500
      -9      -1      -3        1.699035        1.752100        0.011800
       9      -2      -3        1.405642        1.369300        0.012600
      -9      -3      -3        1.064106        1.059100        0.014900
       9      -4      -3        1.217921        1.171800        0.014300
       8      -4      -3        1.742792        1.702300        0.012200
      -8      -5      -3        1.511246        1.472100        0.013100
      -7      -5      -3        1.681815        1.673800        0.012100
       7      -6      -3        1.493817        1.452500        0.012900
      -2     -10      -2        0.315250        0.290100        0.044400
      -1     -10      -2        0.431974        0.448300        0.014100
       5      -9      -2        0.933758        0.980500        0.015500
       4      -9      -2        0.662499        0.688600        0.012800
       3      -9      -2        0.423897        0.434800        0.013500
       2      -9      -2        0.680451        0.637900        0.011500
       1      -9      -2        0.780224        0.792900        0.014200
       0      -9      -2        0.259910        0.301800        0.025200
      -6      -8      -2        1.084030        1.083100        0.015400
      -5      -8      -2        0.834581        0.840700        0.015200
       7      -7      -2        1.146822        1.165900        0.020200
       6      -7      -2        1.024442        1.039700        0.014700
      10       0      -1        1.517643        1.490200        0.014500
      10      -2      -1        1.061112        1.022500        0.015400
     -10      -3      -1        0.928616        0.925900        0.016400
      -9      -3      -1        1.292649        1.265600        0.013200
       9      -4      -1        0.993286        1.024400        0.015300
      -9      -5      -1        1.203805        1.154800        0.014500
      -8      -5      -1        1.093537        1.150500        0.013700
       8      -6      -1        1.235328        1.214100        0.014200
      -8      -7      -1        0.803103        0.740600        0.016500
      -7      -7      -1        1.054600        1.127000        0.020000
      -3     -10       0        0.178880        0.257500        0.035900
      -2     -10       0        1.830917        1.819200        0.012500
      -1     -10       0        0.352667        0.313100        0.021400
       0     -10       0        0.972267        0.954900        0.018500
       5      -9       0        2.402650        2.484500        0.013900
       4      -9       0        0.604635        0.640200        0.014500
       3      -9       0        2.250610        2.274400        0.012400
      -7      -8       0        0.246395        0.376300        0.020500
      -6      -8       0        2.828739        2.873900        0.014600
      -5      -8       0        0.969168        0.984000        0.015500
       2      -4      -9        0.587570        0.619000        0.012700
       1      -4      -9        1.410201        1.354100        0.013500
       0      -4      -9        1.443478        1.447400        0.015300
      -3      -3      -9        0.956605        0.987000        0.022800
      -2      -3      -9        0.801639        0.819300        0.017300
      -1      -3      -9        1.218867        1.208400        0.013800
       0      -3      -9        2.081880        2.045700        0.015200
       2      -2      -9        1.303809        1.279200        0.019600
       1      -2      -9        1.817493        1.802300        0.012600
       0      -2      -9        0.652389        0.596200        0.015600
      -1      -1      -9        1.104915        1.134900        0.019900
       0       0      -9        1.854485        1.893900        0.024900
      -6       0      -8        1.553904        1.520100        0.015200
      -5       0      -8        2.419970        2.420500        0.015900
       6      -1      -8        1.830649        1.802000        0.013100
       5      -1      -8        0.904206        0.905400        0.016800
      -6      -2      -8        0.737644        0.770700        0.015300
      -5      -2      -8        2.527603        2.549400        0.014100
       6      -3      -8        2.024796        2.064000        0.013600
       5      -3      -8        1.087116        1.023400        0.015800
       4      -3      -8        1.700519        1.728000        0.012600
      -5      -4      -8        1.914274        1.885000        0.013100
      -4      -4      -8        1.763447        1.709800        0.017900
       2      -8      -7        0.888689        0.902100        0.016900
       1      -8      -7        1.863544        1.861200        0.013300
      -4      -7      -7        0.647306        0.664500        0.014700
      -3      -7      -7        0.555704        0.557500        0.012300
      -2      -7      -7        1.560272        1.595700        0.012700
      -1      -7      -7        0.251223        0.277900        0.033600
       0      -7      -7        3.409275        3.428300        0.019900
       5      -6      -7        1.119856        1.121300        0.014900
       4      -6      -7        0.956478        0.949200        0.016000
      -5      -5      -7        1.547495        1.546600        0.018100
      -9       0      -6        0.641483        0.661500        0.015500
      -8       0      -6        0.638194        0.704300        0.016000
       8      -1      -6        0.830703        0.876500        0.017300
      -9      -2      -6        0.851563        0.901000        0.016900
      -8      -2      -6        0.524307        0.503400        0.012600
       8      -3      -6        1.016609        1.040200        0.015100
      -8      -4      -6        0.228330        0.290100        0.042900
      -7      -4      -6        1.220357        1.201800        0.013900
      -7      -6      -6        0.529935        0.562800        0.013000
       1     -10      -5        0.433640        0.354600        0.017700
      -4      -9      -5        1.020213        1.010800        0.016000
      -3      -9      -5        0.399431        0.337400        0.018600
      -2      -9      -5        0.957951        0.878700        0.017300
      -1      -9      -5        0.478727        0.503400        0.012600
       0      -9      -5        0.640407        0.584400        0.014200
       6      -8      -5        0.946225        1.001900        0.015700
       5      -8      -5        1.164929        1.148300        0.014600
      -7      -7      -5        1.077188        1.043600        0.022500
      -6      -7      -5        1.354766        1.354100        0.013800
     -10       0      -4        0.707851        0.677800        0.015900
      10      -1      -4        1.664225        1.631000        0.013000
     -10      -2      -4        0.840217        0.867400        0.016400
      10      -3      -4        0.551159        0.553100        0.011500
     -10      -4      -4        0.960887        0.996500        0.015800
      -9      -4      -4        0.791656        0.728500        0.014800
       9      -5      -4        1.288321        1.251100        0.014600
      -8      -6      -4        1.422233        1.394000        0.013800
       8      -7      -4        0.619496        0.586100        0.013400
       7      -7      -4        1.398788        1.377600        0.020000
      -2     -11      -3        0.725258        0.705700        0.015300
      -1     -11      -3        0.987836        0.971800        0.016200
       0     -11      -3        0.543583        0.565500        0.013800
       5     -10      -3        0.742404        0.687200        0.014300
       3     -10      -3        0.929335        0.914100        0.016100
       2     -10      -3        0.893332        0.914100        0.016100
      -6      -9      -3        0.883942        0.866800        0.016400
      -5      -9      -3        0.343246        0.251700        0.036700
       7      -8      -3        0.907112        0.876500        0.017300
     -11       0      -2        0.354269        0.283200        0.028300
      11      -3      -2        0.494833        0.474100        0.013400
      10      -3      -2        0.546523        0.562000        0.011300
     -10      -4      -2        0.708082        0.701400        0.013300
      10      -5      -2        0.310040        0.311500        0.030300
      -9      -6      -2        0.392769        0.384100        0.016400
       8      -7      -2        0.475638        0.461400        0.013700
      -8      -8      -2        0.355699        0.391700        0.022100
      -4     -11      -1        0.511007        0.475100        0.013400
      -3     -11      -1        0.639396        0.654000        0.012700
      -2     -11      -1        0.496002        0.488500        0.013000
      -1     -11      -1        0.973642        0.950700        0.016500
       6     -10      -1        0.850554        0.830700        0.016500
       5     -10      -1        0.561046        0.579300        0.011800
       4     -10      -1        0.784228        0.773900        0.015200
      -7      -9      -1        0.927618        0.941300        0.016700
      -6      -9      -1        0.619893        0.640200        0.013800
       8      -8      -1        0.943791        0.921100        0.022300
      11      -1       0        1.096525        1.140100        0.014200
     -11      -2       0        0.304615        0.340300        0.022500
      11      -3       0        1.708765        1.654500        0.013400
     -10      -4       0        2.218431        2.234600        0.015500
      10      -5       0        0.237022        0.241700        0.030800
     -10      -6       0        0.812124        0.760400        0.014800
      -9      -6       0        0.391884        0.416200        0.016300
       9      -7       0        0.905027        0.891600        0.016000
      -8      -8       0        1.019318        0.932900        0.024100
      -4       0     -10        0.650293        0.644100        0.017400
      -3       0     -10        2.114542        2.178500        0.016300
      -2       0     -10        1.015818        1.026800        0.018200
      -1       0     -10        0.529327        0.429100        0.017000
       0       0     -10        1.672857        1.687400        0.026200
       4      -1     -10        1.274083        1.333800        0.014000
       3      -1     -10        0.983633        1.027800        0.015300
       2      -1     -10        1.011863        1.086300        0.014900
       1      -1     -10        1.777375        1.787900        0.018500
      -4      -2     -10        1.172439        1.186100        0.014500
      -3      -2     -10        0.334001        0.343200        0.023700
      -2      -2     -10        1.903961        1.896500        0.019000
       3      -3     -10        1.185413        1.214900        0.019800
       3      -6      -9        0.846408        0.765600        0.014700
       2      -6      -9        0.538526        0.498500        0.012700
       1      -6      -9        0.610646        0.608500        0.012900
       0      -6      -9        0.476886        0.512200        0.014300
      -4      -5      -9        0.664777        0.671900        0.011700
      -3      -5      -9        0.406275        0.421000        0.015000
      -2      -5      -9        1.148928        1.155600        0.014500
      -1      -5      -9        0.774131        0.763600        0.014100
       0      -5      -9        0.814725        0.733200        0.019300
       4      -4      -9        0.609295        0.667500        0.016100
       3      -4      -9        0.466850        0.453800        0.014000
      -8       0      -8        0.860670        0.806500        0.019400
      -7       0      -8        1.139659        1.101200        0.017000
       8      -1      -8        1.307115        1.275400        0.014300
       7      -1      -8        1.150151        1.103500        0.015100
      -8      -2      -8        0.303485        0.343200        0.019600
      -7      -2      -8        1.673694        1.699100        0.013100
       7      -3      -8        0.399475        0.424500        0.014900
      -7      -4      -8        1.688217        1.729700        0.013700
      -6      -4      -8        0.370921        0.395500        0.015900
       6      -5      -8        1.758454        1.755500        0.013500
       5      -5      -8        0.458510        0.497500        0.018600
      -2      -9      -7        1.088055        1.078500        0.015500
      -1      -9      -7        0.591918        0.564600        0.013000
       0      -9      -7        1.069879        1.063800        0.017500
       5      -8      -7        1.493232        1.522400        0.013600
       3      -8      -7        0.857699        0.890500        0.017100
      -6      -7      -7        1.847193        1.867300        0.013700
       6      -6      -7        0.419507        0.398000        0.021800
     -10       0      -6        0.430994        0.426800        0.017100
      10      -1      -6        0.576408        0.571600        0.011100
      10      -3      -6        0.234776        0.323900        0.029200
      -9      -4      -6        0.504832        0.532100        0.012000
       9      -5      -6        0.562384        0.610900        0.012000
       8      -5      -6        0.738970        0.764300        0.016700
      -8      -6      -6        0.711422        0.760400        0.016100
       7      -7      -6        0.850016        0.928600        0.024200
       0       0      -2       11.445288       11.500400        0.035200
      -1      -1       0       32.021379       31.449600        0.029900
