# ========================
# TONTO generated CIF file
# ========================

data_so2

_audit_creation_date               2016-2-16
_audit_creation_method             'Tonto 3.6.0 github v. 76a8ae1'

# This is an incomplete CIF file, you must edit it
# in order for it to be acceptable

# ================
# Publication info
# ================

_publ_contact_author
;
    Dr. Tonto Magnifico
;
_publ_contact_author_email         'tonto.magnifico@gmail.com'
_publ_contact_author_fax           'use e-mail in century 21'
_publ_contact_author_phone         '+61 8 6488 3138'
_publ_requested_journal            'IUCrJ'
_publ_section_title
;
   Hirshfeld-atom-refinement (HAR) for so2
   See: SC. Capelli, H.-B. Burgi, B. Dittrich, S.Grabowsky
        and Dylan Jayatilaka, IUCrJ (2014). 1, 361â€“379
;

loop_
    _publ_author_name
    'Tonto Magnifico'

_publ_author_address
;
    Dr. Tonto Magnifico
    1 El Camino Ciberespacio
    Tierra Austral del Espiritu Santo
;

# ====================
# Chemical information
# ====================

_chemical_name_common              so2
_chemical_formula_sum              'O2 S'
_chemical_formula_moiety           'O2 S'
_chemical_formula_weight           64.0628
_chemical_compound_source          'see text'
_chemical_absolute_configuration   unk

# Tonto specific keys

_chemical_formula_spin_mult         1
_chemical_formula_n_electrons       32
_chemical_formula_n_alpha_electrons 16
_chemical_formula_n_beta_electrons  16

# ====================
# Symmetry information
# ====================

_symmetry_cell_setting             Orthorhombic
_symmetry_space_group_name_H-M     'a b a 2'
_symmetry_space_group_name_Hall    'a 2 -2ab'
_symmetry_Int_Tables_number        '41'

loop_
    _symmetry_equiv_pos_as_xyz
'+x, +y, +z'
'+x, +y+1/2, +z+1/2'
'-x, -y, +z'
'-x+1/2, +y+1/2, +z'
'-x, -y+1/2, +z+1/2'
'-x+1/2, +y, +z+1/2'
'+x+1/2, -y+1/2, +z'
'+x+1/2, -y, +z+1/2'

# =====================
# Unit cell information
# =====================

_cell_length_a                      6.078500(0)
_cell_length_b                      5.953300(0)
_cell_length_c                      6.171000(0)
_cell_angle_alpha                   90.000000(0)
_cell_angle_beta                    90.000000(0)
_cell_angle_gamma                   90.000000(0)
_cell_volume                        223.310804(0)

_cell_formula_units_Z               4.00000

_atom_sites_Cartn_tran_matrix_11    6.078500
_atom_sites_Cartn_tran_matrix_21    0.000000
_atom_sites_Cartn_tran_matrix_31    0.000000
_atom_sites_Cartn_tran_matrix_12    0.000000
_atom_sites_Cartn_tran_matrix_22    5.953300
_atom_sites_Cartn_tran_matrix_32    0.000000
_atom_sites_Cartn_tran_matrix_13    0.000000
_atom_sites_Cartn_tran_matrix_23    0.000000
_atom_sites_Cartn_tran_matrix_33    6.171000
_atom_sites_Cartn_tran_vector_1     0.000000
_atom_sites_Cartn_tran_vector_2     0.000000
_atom_sites_Cartn_tran_vector_3     0.000000

# ==================
# Refinement details
# ==================

# Tonto-specific keys and data

_refine_ls_software                'Tonto'
_refine_ls_software_version        '3.6.0 v. 76a8ae1'
_refine_ls_software_platform       'GNU-gfortran-on-LINUX'
_refine_ls_software_build_date     'Tue Feb 16 02:16:50 AWST 2016'
_refine_ls_kind                    'Hirshfeld atom refinement (HAR)'

_refine_ls_QM_calc_method          'Hartree-Fock/SCCF L=1 R=8.0 A'
_refine_ls_QM_calc_ao_kind         'restricted'
_refine_ls_QM_calc_basis           'DZP'
_refine_ls_QM_calc_basis_kind      'cartesian'
_refine_ls_QM_calc_basis_max_l     '2'
_refine_ls_QM_calc_unit            'As listed in _atom_site_* block'

_refine_ls_SVD_threshold           0.1E-04
_refine_ls_coordinate_system       cartesian

# Standard CIF keys and data

_refine_ls_structure_factor_coeff  F
_refine_ls_matrix_type             full
_refine_ls_R_factor_gt             0.0287
_refine_ls_R_factor_all            0.0287
_refine_ls_wR_factor_gt            0.0122
_refine_ls_wR_factor_all           0.0122
_refine_ls_R_Fsqd_factor           0.0485
_refine_ls_goodness_of_fit_gt      1.9231
_refine_ls_goodness_of_fit_all     1.9231
_refine_ls_number_reflns           1080
_refine_ls_number_parameters       27
_refine_ls_number_restraints       0
_refine_ls_number_constraints      17
_refine_ls_hydrogen_treatment      refall
_refine_ls_weighting_scheme        sigma
_refine_ls_weighting_details       'w=1/\s(F)'
_refine_ls_shift/su_conv_tol       0.0100
_refine_ls_shift/su_max            0.0007
_refine_ls_shift/su_max_mean       0.0001
_refine_ls_shift/su_max_par        'S Uxy'
_refine_ls_extinction_method       none

_refine_diff_density_max           0.0440
_refine_diff_density_min           -0.0630
_refine_diff_density_rms           0.0098
_refine_diff_density_max_atom      0.0145
_refine_diff_density_max_atom_tag  S
_refine_diff_density_min_atom      0.0027
_refine_diff_density_min_atom_tag  O1
_refine_diff_density_rms_atom      0.0050

_refine_special_details
;
. If constraints were applied they are defined by zero
  eigenvalues of the least-squares hessian, see the
  value of _refine_ls_SVD_threshold
;

# ===============================
# Accurate fractional coordinates
# ===============================

# . These are precise parameters and ESDs
# . Keep these for a refinement restart
# . Better yet, use the refined cartesian parameters

loop_
_atom_site_label
_atom_site_fract_x
_atom_site_fract_x_esu
_atom_site_fract_y
_atom_site_fract_y_esu
_atom_site_fract_z
_atom_site_fract_z_esu
_atom_site_adp_type
_atom_site_occupancy
_atom_site_disorder_group
S
      0.00000000
      0.00000000
      1.00000000
      0.00000000
      0.85135480
      0.00007882
Uani
1.00000000
0
O1
     -0.13663459
      0.00004157
      1.15004541
      0.00004073
      0.97160120
      0.00007882
Uani
1.00000000
0
O2
      0.13663459
      0.00004157
      0.84995459
      0.00004073
      0.97160120
      0.00007882
Uani
1.00000000
0

# ======================
# Fractional coordinates
# ======================

# . These are in standard presentation

loop_
_atom_site_label
_atom_site_fract_x
_atom_site_fract_y
_atom_site_fract_z
_atom_site_adp_type
_atom_site_occupancy
_atom_site_disorder_group
S
   0.00000000000(0)
   1.00000000000(0)
         0.85135(8)
Uani
1.00000000000
O1
        -0.13663(4)
         1.15005(4)
         0.97160(8)
Uani
1.00000000000
O2
         0.13663(4)
         0.84995(4)
         0.97160(8)
Uani
1.00000000000

# ========================
# Crystal axis system ADPs
# ========================

# . These are precise parameters and ESDs
# . Keep these for a refinement restart
# . Better yet, use the refined cartesian parameters

loop_
_atom_site_aniso_label
_atom_site_aniso_U_11
_atom_site_aniso_U_11_esu
_atom_site_aniso_U_22
_atom_site_aniso_U_22_esu
_atom_site_aniso_U_33
_atom_site_aniso_U_33_esu
_atom_site_aniso_U_12
_atom_site_aniso_U_12_esu
_atom_site_aniso_U_13
_atom_site_aniso_U_13_esu
_atom_site_aniso_U_23
_atom_site_aniso_U_23_esu
S
      0.01950802
      0.00009008
      0.01639069
      0.00007733
      0.01747012
      0.00008235
      0.00175012
      0.00008376
      0.00000000
      0.00000000
      0.00000000
      0.00000000
O1
      0.02373407
      0.00009868
      0.02608595
      0.00010012
      0.03231700
      0.00011960
      0.00449871
      0.00008623
      0.00319570
      0.00013100
     -0.00629003
      0.00012367
O2
      0.02373407
      0.00009868
      0.02608595
      0.00010012
      0.03231700
      0.00011960
      0.00449871
      0.00008623
     -0.00319570
      0.00013100
      0.00629003
      0.00012367

# ========================
# Crystal axis system ADPs
# ========================

# . These are in standard presentation

loop_
_atom_site_aniso_label
_atom_site_aniso_U_11
_atom_site_aniso_U_22
_atom_site_aniso_U_33
_atom_site_aniso_U_12
_atom_site_aniso_U_13
_atom_site_aniso_U_23
S
         0.01951(9)
         0.01639(8)
         0.01747(8)
         0.00175(8)
   0.00000000000(0)
   0.00000000000(0)
O1
          0.0237(1)
          0.0261(1)
          0.0323(1)
         0.00450(9)
          0.0032(1)
         -0.0063(1)
O2
          0.0237(1)
          0.0261(1)
          0.0323(1)
         0.00450(9)
         -0.0032(1)
          0.0063(1)

# ======================================
# Third order Gram-Charlier coefficients
# ======================================

# . These are precise parameters and ESDs
# . Keep these for a refinement restart
# . Better yet, use the refined cartesian parameters

_atom_site_anharm_GC_C_scale_factor 1000.0000000000000

loop_
_atom_site_anharm_GC_C_label
_atom_site_anharm_GC_C_111
_atom_site_anharm_GC_C_111_esu
_atom_site_anharm_GC_C_222
_atom_site_anharm_GC_C_222_esu
_atom_site_anharm_GC_C_333
_atom_site_anharm_GC_C_333_esu
_atom_site_anharm_GC_C_112
_atom_site_anharm_GC_C_112_esu
_atom_site_anharm_GC_C_113
_atom_site_anharm_GC_C_113_esu
_atom_site_anharm_GC_C_122
_atom_site_anharm_GC_C_122_esu
_atom_site_anharm_GC_C_223
_atom_site_anharm_GC_C_223_esu
_atom_site_anharm_GC_C_133
_atom_site_anharm_GC_C_133_esu
_atom_site_anharm_GC_C_233
_atom_site_anharm_GC_C_233_esu
_atom_site_anharm_GC_C_123
_atom_site_anharm_GC_C_123_esu
S
      0.00000000
      0.00000000
      0.00000000
      0.00000000
     -0.00007031
      0.00041059
      0.00000000
      0.00000000
      0.00023318
      0.00019655
      0.00000000
      0.00000000
      0.00114123
      0.00018684
      0.00000000
      0.00000000
      0.00000000
      0.00000000
     -0.00000603
      0.00005178

# ======================================
# Third order Gram-Charlier coefficients
# ======================================

# . These are in standard presentation

loop_
_atom_site_anharm_GC_C_label
_atom_site_anharm_GC_C_111
_atom_site_anharm_GC_C_222
_atom_site_anharm_GC_C_333
_atom_site_anharm_GC_C_112
_atom_site_anharm_GC_C_113
_atom_site_anharm_GC_C_122
_atom_site_anharm_GC_C_223
_atom_site_anharm_GC_C_133
_atom_site_anharm_GC_C_233
_atom_site_anharm_GC_C_123
S
   0.00000000000(0)
   0.00000000000(0)
         -0.0001(4)
   0.00000000000(0)
          0.0002(2)
   0.00000000000(0)
          0.0011(2)
   0.00000000000(0)
   0.00000000000(0)
        -0.00001(5)

# =======================================
# Fourth order Gram-Charlier coefficients
# =======================================

# . These are precise parameters and ESDs
# . Keep these for a refinement restart
# . Better yet, use the refined cartesian parameters

_atom_site_anharm_GC_D_scale_factor 10000.000000000000

loop_
_atom_site_anharm_GC_D_label
_atom_site_anharm_GC_D_1111
_atom_site_anharm_GC_D_1111_esu
_atom_site_anharm_GC_D_2222
_atom_site_anharm_GC_D_2222_esu
_atom_site_anharm_GC_D_3333
_atom_site_anharm_GC_D_3333_esu
_atom_site_anharm_GC_D_1112
_atom_site_anharm_GC_D_1112_esu
_atom_site_anharm_GC_D_1113
_atom_site_anharm_GC_D_1113_esu
_atom_site_anharm_GC_D_1222
_atom_site_anharm_GC_D_1222_esu
_atom_site_anharm_GC_D_2223
_atom_site_anharm_GC_D_2223_esu
_atom_site_anharm_GC_D_1333
_atom_site_anharm_GC_D_1333_esu
_atom_site_anharm_GC_D_2333
_atom_site_anharm_GC_D_2333_esu
_atom_site_anharm_GC_D_1122
_atom_site_anharm_GC_D_1122_esu
_atom_site_anharm_GC_D_1133
_atom_site_anharm_GC_D_1133_esu
_atom_site_anharm_GC_D_2233
_atom_site_anharm_GC_D_2233_esu
_atom_site_anharm_GC_D_1123
_atom_site_anharm_GC_D_1123_esu
_atom_site_anharm_GC_D_1223
_atom_site_anharm_GC_D_1223_esu
_atom_site_anharm_GC_D_1233
_atom_site_anharm_GC_D_1233_esu
S
      0.00002081
      0.00006353
     -0.00021573
      0.00004986
      0.00002760
      0.00005014
     -0.00000649
      0.00006896
      0.00000000
      0.00000000
     -0.00005419
      0.00006545
      0.00000000
      0.00000000
      0.00000000
      0.00000000
      0.00000000
      0.00000000
      0.00001095
      0.00002093
     -0.00002037
      0.00002007
      0.00001943
      0.00001992
      0.00000000
      0.00000000
      0.00000000
      0.00000000
     -0.00008336
      0.00003909

# =======================================
# Fourth order Gram-Charlier coefficients
# =======================================

# . These are in standard presentation

loop_
_atom_site_anharm_GC_D_label
_atom_site_anharm_GC_D_1111
_atom_site_anharm_GC_D_2222
_atom_site_anharm_GC_D_3333
_atom_site_anharm_GC_D_1112
_atom_site_anharm_GC_D_1113
_atom_site_anharm_GC_D_1222
_atom_site_anharm_GC_D_2223
_atom_site_anharm_GC_D_1333
_atom_site_anharm_GC_D_2333
_atom_site_anharm_GC_D_1122
_atom_site_anharm_GC_D_1133
_atom_site_anharm_GC_D_2233
_atom_site_anharm_GC_D_1123
_atom_site_anharm_GC_D_1223
_atom_site_anharm_GC_D_1233
S
         0.00002(6)
        -0.00022(5)
         0.00003(5)
        -0.00001(7)
   0.00000000000(0)
        -0.00005(7)
   0.00000000000(0)
   0.00000000000(0)
   0.00000000000(0)
         0.00001(2)
        -0.00002(2)
         0.00002(2)
   0.00000000000(0)
   0.00000000000(0)
        -0.00008(4)

# Tonto-specific key and data

#

# NOTE: Cartesian 9Nx9N covariance matrix in BOHR units
# The order of the variables (per atom) is as follows:
# . Elements 1-3: positions: x y x
# . Elements 4-9: 2nd order ADPs:
#      U 11 22 33 12 13 23
# . Elements 10-19: 3rd order ADPs (if refined):
#      U 111 222 333 112 113 122 223 133 233 123
# . Elements 20-34: 4th order ADPs (if refined):
#      U 1112 1113 1222 2223 1333 2333
#        1122 1133 2233 1123 1223 1233

_asym_unit_covariance_matrix
[
  0.84024098E-28 -0.10383085E-27 -0.79043810E-17 -0.71934216E-18 -0.27516605E-19
 -0.19382569E-18 -0.20294157E-19 -0.89247733E-28  0.42565807E-28 -0.57418756E-28
  0.16207824E-27 -0.41143838E-17  0.24229158E-27 -0.88685008E-18 -0.21397606E-27
 -0.74137373E-18 -0.18470653E-27  0.47329580E-27  0.29931130E-19 -0.21304185E-18
  0.17219919E-19 -0.31863257E-19 -0.69053374E-20  0.12284020E-27  0.67432849E-20
  0.61444598E-28  0.96183688E-28 -0.74633559E-28 -0.28730249E-19 -0.22071933E-19
  0.71277532E-19 -0.16590496E-27 -0.87225134E-28 -0.96926410E-20 -0.34591761E-18
 -0.42681877E-18  0.79043810E-17 -0.45809645E-18 -0.29609709E-18  0.21966454E-18
 -0.26081916E-18 -0.14575915E-19 -0.27081287E-18
 -0.10383085E-27  0.14379161E-27  0.91707709E-17  0.12057197E-17  0.57471668E-18
  0.94089827E-18  0.30919093E-18  0.11565803E-27 -0.52318846E-28  0.69677149E-28
 -0.21563903E-27  0.46618393E-17 -0.30381904E-27  0.10398566E-17  0.27187589E-27
  0.77035632E-18  0.22058972E-27 -0.56624077E-27 -0.28847982E-19  0.31773629E-18
  0.94114712E-19  0.21307039E-18  0.77974399E-19 -0.16526340E-27  0.57582242E-19
 -0.66200272E-28 -0.13374604E-27  0.94378898E-28  0.67622964E-19  0.63597330E-19
 -0.31127575E-19  0.20774526E-27  0.82176070E-28  0.21803092E-19  0.14076940E-18
  0.14937254E-17 -0.91707709E-17  0.10231885E-17  0.78835352E-18  0.27946764E-18
  0.55605334E-18  0.11621309E-18  0.31681325E-18
 -0.79043810E-17  0.91707709E-17  0.84482770E-06 -0.12552135E-07 -0.19868799E-07
 -0.17854357E-07 -0.19210879E-08  0.86023027E-17 -0.43884365E-17  0.49798378E-17
 -0.14499022E-16  0.40552986E-06 -0.23001158E-16  0.97813793E-07  0.19865244E-16
  0.84392708E-07  0.18571026E-16 -0.48466570E-16 -0.32077386E-08 -0.30687015E-08
 -0.45129815E-08 -0.40903307E-08 -0.69066643E-09 -0.11249104E-16 -0.58221800E-09
 -0.63797177E-17 -0.82197477E-17  0.73591221E-17 -0.10187195E-08 -0.24949866E-08
 -0.92950237E-08  0.16885470E-16  0.10874828E-16  0.80267608E-09 -0.38511651E-08
  0.61016161E-08 -0.84482770E-06 -0.75890332E-09 -0.43607330E-08 -0.41492455E-07
  0.21060877E-08 -0.11633063E-07  0.14263109E-07
 -0.71934216E-18  0.12057197E-17 -0.12552135E-07  0.10347027E-06  0.25451004E-07
  0.25266130E-07 -0.79268210E-09  0.94942396E-18 -0.11952417E-18  0.11108917E-17
 -0.22407245E-17 -0.45504568E-08 -0.22552876E-17 -0.58972043E-08  0.18530488E-17
  0.87602983E-09  0.95360541E-18 -0.88017284E-18 -0.24306535E-09  0.29880362E-07
  0.33284316E-08  0.34719659E-08  0.24597347E-09 -0.17153143E-17 -0.65330122E-09
 -0.28200347E-18 -0.19289086E-17  0.39052070E-18  0.49596319E-08  0.50744113E-08
  0.12891772E-08  0.54223874E-18 -0.19145428E-17 -0.44168910E-09 -0.44686039E-08
 -0.36757504E-08  0.12552135E-07  0.29513391E-07  0.29538075E-07  0.29188722E-07
  0.43141852E-08  0.86902480E-09 -0.29126285E-08
 -0.27516605E-19  0.57471668E-18 -0.19868799E-07  0.25451004E-07  0.76257700E-07
  0.23696891E-07 -0.15479473E-08  0.62014447E-18  0.45111858E-19  0.15928119E-18
 -0.15138727E-17 -0.75760526E-08 -0.93769247E-18 -0.50543681E-09  0.76656180E-18
 -0.79824274E-08  0.11683192E-18 -0.21879763E-18 -0.27711466E-09  0.39430148E-08
  0.18608005E-07  0.31656368E-08 -0.81402800E-09 -0.10745254E-17 -0.72170723E-10
 -0.44991954E-18 -0.11418323E-17  0.14645333E-18  0.40605362E-08  0.12023344E-08
  0.43809538E-08  0.16794259E-18 -0.70318509E-18 -0.46923346E-09 -0.58966612E-09
  0.17157091E-08  0.19868799E-07  0.23530355E-07  0.28780782E-07  0.27253035E-07
  0.31504365E-08  0.15205633E-08 -0.38484581E-09
 -0.19382569E-18  0.94089827E-18 -0.17854357E-07  0.25266130E-07  0.23696891E-07
  0.86472846E-07 -0.71613217E-08  0.79463820E-18 -0.19136644E-18  0.29006374E-18
 -0.18389296E-17 -0.12857716E-07 -0.10830216E-17 -0.11971403E-08  0.14221434E-17
 -0.22884974E-08  0.49622357E-18 -0.95339358E-18 -0.28709838E-09  0.37332979E-08
  0.31057169E-08  0.23132972E-07 -0.20502590E-08 -0.15038528E-17 -0.19873928E-08
 -0.47064054E-19 -0.15247204E-17  0.39735953E-18  0.10489888E-08  0.45338800E-08
  0.44556125E-08  0.73230518E-18 -0.17717084E-17 -0.74784480E-09 -0.55071831E-09
 -0.18785115E-08  0.17854357E-07  0.23571169E-07  0.27877778E-07  0.34338770E-07
  0.30955504E-08  0.34375287E-08 -0.52702531E-08
 -0.20294157E-19  0.30919093E-18 -0.19210879E-08 -0.79268210E-09 -0.15479473E-08
 -0.71613217E-08  0.89460509E-07 -0.23283194E-18 -0.69015751E-18 -0.16803057E-18
 -0.21677362E-18 -0.35265414E-09 -0.12930586E-18  0.33971961E-09  0.43639276E-19
 -0.13840561E-09 -0.99591059E-18  0.76200940E-18  0.15397086E-08  0.59414233E-09
  0.17743828E-09 -0.14924983E-08  0.21955474E-07  0.29003440E-18  0.19545836E-07
  0.53355691E-18  0.18480324E-18  0.44596728E-18  0.14756772E-08 -0.23592596E-09
 -0.23303498E-09  0.52913779E-18  0.33895558E-18  0.82009275E-08  0.60723355E-08
 -0.21283910E-08  0.19210879E-08 -0.66999756E-08 -0.64932343E-08 -0.14028035E-08
 -0.44545069E-08  0.24943326E-08 -0.17678037E-10
 -0.89247733E-28  0.11565803E-27  0.86023027E-17  0.94942396E-18  0.62014447E-18
  0.79463820E-18 -0.23283194E-18  0.11813091E-27 -0.52058138E-28  0.63073694E-28
 -0.19885135E-27  0.45559657E-17 -0.27557814E-27  0.77579201E-18  0.23761573E-27
  0.87605021E-18  0.21363955E-27 -0.53047531E-27 -0.29283193E-19  0.22708909E-18
  0.11139011E-18  0.17101907E-18 -0.58850340E-19 -0.16394615E-27 -0.64789691E-19
 -0.69250789E-28 -0.12951031E-27  0.92640486E-28  0.52321703E-19  0.50540853E-19
 -0.37614520E-19  0.20148233E-27  0.66090082E-28 -0.31359158E-19 -0.76642691E-18
 -0.25536977E-18 -0.86023027E-17  0.58256610E-18  0.95336943E-18  0.90559199E-18
  0.18730298E-18 -0.29616168E-18 -0.58130819E-18
  0.42565807E-28 -0.52318846E-28 -0.43884365E-17 -0.11952417E-18  0.45111858E-19
 -0.19136644E-18 -0.69015751E-18 -0.52058138E-28  0.34105130E-28 -0.27618036E-28
  0.93227107E-28 -0.22898005E-17  0.13014561E-27 -0.41550198E-18 -0.11455571E-27
 -0.54943499E-18 -0.94141239E-28  0.25512271E-27  0.55837715E-21 -0.28139276E-19
  0.20700222E-19 -0.56816514E-19 -0.19382690E-18  0.70613256E-28 -0.13280892E-18
  0.28599724E-28  0.54434557E-28 -0.50986873E-28 -0.14405131E-19 -0.57050038E-20
  0.42783068E-19 -0.10410301E-27 -0.44135487E-28 -0.62522746E-19 -0.14143047E-19
  0.53346463E-18  0.43884365E-17  0.11947527E-18 -0.36497006E-18 -0.28859474E-18
  0.18478322E-20 -0.54222655E-19  0.43499171E-18
 -0.57418756E-28  0.69677149E-28  0.49798378E-17  0.11108917E-17  0.15928119E-18
  0.29006374E-18 -0.16803057E-18  0.63073694E-28 -0.27618036E-28  0.46611536E-28
 -0.11941646E-27  0.22984477E-17 -0.17252531E-27  0.68109060E-18  0.14977607E-27
  0.59168632E-18  0.12602365E-27 -0.30906628E-27 -0.20346364E-19  0.32465694E-18
  0.13591835E-20  0.44371453E-19 -0.44104613E-19 -0.87142975E-28 -0.57801229E-19
 -0.46496950E-28 -0.73484967E-28  0.47254771E-28  0.44474028E-19  0.45415350E-19
 -0.40342745E-19  0.10744544E-27  0.45873795E-28 -0.44079680E-20  0.25582211E-18
 -0.27012310E-18 -0.49798378E-17  0.65115494E-18  0.54965557E-18 -0.27457812E-18
  0.15386837E-18 -0.88579065E-19  0.57850025E-19
  0.16207824E-27 -0.21563903E-27 -0.14499022E-16 -0.22407245E-17 -0.15138727E-17
 -0.18389296E-17 -0.21677362E-18 -0.19885135E-27  0.93227107E-28 -0.11941646E-27
  0.37502979E-27 -0.72570830E-17  0.49940008E-27 -0.17009422E-17 -0.44920178E-27
 -0.15504704E-17 -0.35828006E-27  0.91255397E-27  0.49670649E-19 -0.55309458E-18
 -0.28254261E-18 -0.40335068E-18 -0.52113361E-19  0.28086535E-27  0.57808717E-20
  0.12365067E-27  0.23296062E-27 -0.16055701E-27 -0.13690530E-18 -0.12016771E-18
  0.26380801E-19 -0.34084027E-27 -0.11907198E-27 -0.17812469E-19 -0.71561413E-18
  0.20630314E-18  0.14499022E-16 -0.14540078E-17 -0.23450358E-17 -0.10626661E-17
 -0.39635824E-18 -0.35004381E-18  0.35143480E-18
 -0.41143838E-17  0.46618393E-17  0.40552986E-06 -0.45504568E-08 -0.75760526E-08
 -0.12857716E-07 -0.35265414E-09  0.45559657E-17 -0.22898005E-17  0.22984477E-17
 -0.72570830E-17  0.42397124E-06 -0.11244108E-16 -0.69550777E-09  0.97277598E-17
 -0.47904625E-08  0.97250677E-17 -0.25134654E-16 -0.22620354E-08 -0.12071560E-08
 -0.51239713E-09 -0.50821661E-08  0.26158479E-10 -0.63468136E-17 -0.18434453E-10
 -0.32414716E-17 -0.41295801E-17  0.44365810E-17  0.65076230E-11 -0.99320117E-09
 -0.50290757E-08  0.86913890E-17  0.48475749E-17  0.15477293E-09 -0.36335517E-08
  0.27411014E-08 -0.40552986E-06 -0.22287147E-08 -0.39512283E-08 -0.11405667E-07
  0.65065454E-09 -0.35343809E-08  0.44710486E-08
  0.24229158E-27 -0.30381904E-27 -0.23001158E-16 -0.22552876E-17 -0.93769247E-18
 -0.10830216E-17 -0.12930586E-18 -0.27557814E-27  0.13014561E-27 -0.17252531E-27
  0.49940008E-27 -0.11244108E-16  0.73079705E-27 -0.27913834E-17 -0.62918134E-27
 -0.24153583E-17 -0.54836786E-27  0.13958214E-26  0.81119106E-19 -0.61906648E-18
 -0.15122988E-18 -0.20707845E-18 -0.41401233E-19  0.37604221E-27  0.22945649E-19
  0.19429597E-27  0.29805999E-27 -0.21840781E-27 -0.12027236E-18 -0.80858567E-19
  0.15794299E-18 -0.49679762E-27 -0.24229822E-27 -0.28030725E-19  0.10217112E-18
  0.12340401E-18  0.23001158E-16 -0.18664289E-17 -0.17810657E-17  0.68973881E-18
 -0.85524721E-18  0.20220921E-18 -0.48146459E-18
 -0.88685008E-18  0.10398566E-17  0.97813793E-07 -0.58972043E-08 -0.50543681E-09
 -0.11971403E-08  0.33971961E-09  0.77579201E-18 -0.41550198E-18  0.68109060E-18
 -0.17009422E-17 -0.69550777E-09 -0.27913834E-17  0.91461482E-07  0.25516866E-17
 -0.32377637E-08  0.20190691E-17 -0.53024788E-17  0.11149883E-08 -0.14655537E-08
  0.22472728E-09  0.23246090E-09 -0.18761993E-09 -0.89145826E-18 -0.27797635E-10
 -0.83159817E-18 -0.89283897E-18  0.63236540E-18 -0.66674290E-09 -0.11999366E-08
 -0.40465311E-09  0.19658222E-17  0.15432619E-17  0.26318999E-09  0.13708146E-07
  0.81033676E-09 -0.97813793E-07  0.43788794E-09 -0.73653544E-09 -0.66318164E-08
 -0.69277740E-09 -0.44444736E-08  0.31509810E-08
 -0.21397606E-27  0.27187589E-27  0.19865244E-16  0.18530488E-17  0.76656180E-18
  0.14221434E-17  0.43639276E-19  0.23761573E-27 -0.11455571E-27  0.14977607E-27
 -0.44920178E-27  0.97277598E-17 -0.62918134E-27  0.25516866E-17  0.58374761E-27
  0.20797043E-17  0.46256084E-27 -0.12016197E-26 -0.73850325E-19  0.48264619E-18
  0.10582988E-18  0.32313757E-18 -0.30928224E-19 -0.33166889E-27 -0.26709645E-19
 -0.15253325E-27 -0.27185016E-27  0.20401730E-27  0.89605964E-19  0.82611497E-19
 -0.11965820E-18  0.43385097E-27  0.20341455E-27  0.25950811E-19  0.23878007E-17
  0.83859157E-18 -0.19865244E-16  0.16989776E-17  0.16025691E-17  0.38281194E-18
  0.13516661E-18  0.49587712E-18 -0.30507185E-18
 -0.74137373E-18  0.77035632E-18  0.84392708E-07  0.87602983E-09 -0.79824274E-08
 -0.22884974E-08 -0.13840561E-09  0.87605021E-18 -0.54943499E-18  0.59168632E-18
 -0.15504704E-17 -0.47904625E-08 -0.24153583E-17 -0.32377637E-08  0.20797043E-17
  0.76043171E-07  0.18081004E-17 -0.48152447E-17  0.10421378E-08  0.43290226E-09
 -0.31281545E-08  0.52910681E-09 -0.67666367E-10 -0.10012056E-17 -0.16290963E-09
 -0.62463416E-18 -0.81543138E-18  0.63316520E-18 -0.21321562E-09  0.33158768E-11
 -0.30476323E-08  0.16086504E-17  0.13152575E-17  0.12336664E-09 -0.12466942E-08
 -0.16825505E-07 -0.84392708E-07  0.91834606E-10 -0.10653964E-08 -0.66876664E-08
 -0.10951118E-08  0.53084388E-09  0.43480487E-08
 -0.18470653E-27  0.22058972E-27  0.18571026E-16  0.95360541E-18  0.11683192E-18
  0.49622357E-18 -0.99591059E-18  0.21363955E-27 -0.94141239E-28  0.12602365E-27
 -0.35828006E-27  0.97250677E-17 -0.54836786E-27  0.20190691E-17  0.46256084E-27
  0.18081004E-17  0.44636055E-27 -0.11173994E-26 -0.91431508E-19  0.25619650E-18
 -0.12407886E-19  0.10177599E-18 -0.24085483E-18 -0.28631853E-27 -0.24683025E-18
 -0.15926331E-27 -0.21442118E-27  0.16436837E-27  0.23434199E-19  0.26036626E-19
 -0.16267101E-18  0.38431739E-27  0.20686059E-27 -0.72596345E-19 -0.10708816E-17
 -0.24270060E-18 -0.18571026E-16  0.57431063E-18  0.70741188E-18 -0.57595593E-18
  0.50163455E-18 -0.54721808E-18  0.63516016E-18
  0.47329580E-27 -0.56624077E-27 -0.48466570E-16 -0.88017284E-18 -0.21879763E-18
 -0.95339358E-18  0.76200940E-18 -0.53047531E-27  0.25512271E-27 -0.30906628E-27
  0.91255397E-27 -0.25134654E-16  0.13958214E-26 -0.53024788E-17 -0.12016197E-26
 -0.48152447E-17 -0.11173994E-26  0.28835444E-26  0.19558364E-18 -0.19280621E-18
 -0.27050268E-21 -0.22900119E-18  0.20986400E-18  0.70765566E-27  0.19249253E-18
  0.40259674E-27  0.52629476E-27 -0.43218243E-27 -0.32535864E-19  0.10011769E-19
  0.42601609E-18 -0.99306314E-27 -0.58973363E-27  0.33868754E-19  0.59154088E-18
  0.39096570E-18  0.48466570E-16 -0.12601382E-17 -0.76942462E-18  0.17388865E-17
 -0.63651024E-18  0.45172461E-18 -0.23355751E-17
  0.29931130E-19 -0.28847982E-19 -0.32077386E-08 -0.24306535E-09 -0.27711466E-09
 -0.28709838E-09  0.15397086E-08 -0.29283193E-19  0.55837715E-21 -0.20346364E-19
  0.49670649E-19 -0.22620354E-08  0.81119106E-19  0.11149883E-08 -0.73850325E-19
  0.10421378E-08 -0.91431508E-19  0.19558364E-18  0.60886972E-08 -0.45588156E-10
 -0.75963420E-10 -0.33387606E-10  0.60283702E-09  0.50705524E-19  0.20769314E-09
  0.36504028E-19  0.29530367E-19 -0.15508449E-19  0.19131150E-10 -0.17876246E-10
 -0.24721356E-10 -0.38817139E-19 -0.39437675E-19  0.19581680E-09 -0.66952111E-09
 -0.21631908E-09  0.32077386E-08 -0.14674461E-08 -0.12937610E-09 -0.10672761E-09
 -0.84130265E-09 -0.20765271E-09 -0.21355859E-12
 -0.21304185E-18  0.31773629E-18 -0.30687015E-08  0.29880362E-07  0.39430148E-08
  0.37332979E-08  0.59414233E-09  0.22708909E-18 -0.28139276E-19  0.32465694E-18
 -0.55309458E-18 -0.12071560E-08 -0.61906648E-18 -0.14655537E-08  0.48264619E-18
  0.43290226E-09  0.25619650E-18 -0.19280621E-18 -0.45588156E-10  0.12232335E-07
  0.52064436E-09  0.52313798E-09  0.84996199E-09 -0.41813090E-18 -0.40152122E-09
 -0.57500520E-19 -0.49043246E-18  0.93560977E-19  0.70501612E-09  0.68093359E-09
  0.22222911E-09  0.12342027E-18 -0.50897930E-18 -0.20519775E-09 -0.14017653E-08
 -0.97511575E-09  0.30687015E-08  0.83654103E-08  0.58784179E-08  0.58139978E-08
  0.72445580E-09  0.44747329E-09 -0.44936257E-09
  0.17219919E-19  0.94114712E-19 -0.45129815E-08  0.33284316E-08  0.18608005E-07
  0.31057169E-08  0.17743828E-09  0.11139011E-18  0.20700222E-19  0.13591835E-20
 -0.28254261E-18 -0.51239713E-09 -0.15122988E-18  0.22472728E-09  0.10582988E-18
 -0.31281545E-08 -0.12407886E-19 -0.27050268E-21 -0.75963420E-10  0.52064436E-09
  0.63796587E-08  0.38203181E-09 -0.36658126E-09 -0.19305105E-18  0.50560261E-09
 -0.10536134E-18 -0.20319812E-18  0.20408488E-19  0.48182396E-09  0.16560721E-09
  0.61668488E-09  0.93317219E-20 -0.87980123E-19 -0.16203123E-09 -0.53124013E-10
  0.10235124E-08  0.45129815E-08  0.42307150E-08  0.59454871E-08  0.49361092E-08
  0.55146124E-09  0.84892011E-10 -0.24010665E-09
 -0.31863257E-19  0.21307039E-18 -0.40903307E-08  0.34719659E-08  0.31656368E-08
  0.23132972E-07 -0.14924983E-08  0.17101907E-18 -0.56816514E-19  0.44371453E-19
 -0.40335068E-18 -0.50821661E-08 -0.20707845E-18  0.23246090E-09  0.32313757E-18
  0.52910681E-09  0.10177599E-18 -0.22900119E-18 -0.33387606E-10  0.52313798E-09
  0.38203181E-09  0.85996927E-08 -0.37466619E-09 -0.33385878E-18 -0.37521353E-09
  0.19484314E-19 -0.33787983E-18  0.95196910E-19  0.14583289E-09  0.58865460E-09
  0.59800080E-09  0.18813374E-18 -0.42361162E-18 -0.27159664E-09  0.96076155E-10
 -0.61384287E-09  0.40903307E-08  0.44176905E-08  0.53828628E-08  0.79393281E-08
  0.42337061E-09  0.10262323E-08 -0.13027887E-08
 -0.69053374E-20  0.77974399E-19 -0.69066643E-09  0.24597347E-09 -0.81402800E-09
 -0.20502590E-08  0.21955474E-07 -0.58850340E-19 -0.19382690E-18 -0.44104613E-19
 -0.52113361E-19  0.26158479E-10 -0.41401233E-19 -0.18761993E-09 -0.30928224E-19
 -0.67666367E-10 -0.24085483E-18  0.20986400E-18  0.60283702E-09  0.84996199E-09
 -0.36658126E-09 -0.37466619E-09  0.13824731E-07  0.70343735E-19  0.67923533E-09
  0.15501603E-18  0.57393067E-19  0.11958338E-18  0.60295111E-09 -0.16947657E-09
 -0.13369214E-09  0.14652945E-18  0.77590559E-19  0.60106400E-09  0.40099892E-09
 -0.79998995E-09  0.69066643E-09 -0.52538533E-08 -0.44990537E-09  0.41704756E-09
  0.58057524E-09  0.53685954E-09  0.77622262E-09
  0.12284020E-27 -0.16526340E-27 -0.11249104E-16 -0.17153143E-17 -0.10745254E-17
 -0.15038528E-17  0.29003440E-18 -0.16394615E-27  0.70613256E-28 -0.87142975E-28
  0.28086535E-27 -0.63468136E-17  0.37604221E-27 -0.89145826E-18 -0.33166889E-27
 -0.10012056E-17 -0.28631853E-27  0.70765566E-27  0.50705524E-19 -0.41813090E-18
 -0.19305105E-18 -0.33385878E-18  0.70343735E-19  0.23355356E-27  0.77658009E-19
  0.86369254E-28  0.18791534E-27 -0.13106315E-27 -0.94569927E-19 -0.10156711E-18
  0.22222176E-19 -0.27552325E-27 -0.67773577E-28  0.44114473E-19  0.75246277E-18
 -0.61987926E-19  0.11249104E-16 -0.96545679E-18 -0.14317694E-17 -0.17776103E-17
 -0.39970787E-18  0.22454415E-18  0.10439252E-17
  0.67432849E-20  0.57582242E-19 -0.58221800E-09 -0.65330122E-09 -0.72170723E-10
 -0.19873928E-08  0.19545836E-07 -0.64789691E-19 -0.13280892E-18 -0.57801229E-19
  0.57808717E-20 -0.18434453E-10  0.22945649E-19 -0.27797635E-10 -0.26709645E-19
 -0.16290963E-09 -0.24683025E-18  0.19249253E-18  0.20769314E-09 -0.40152122E-09
  0.50560261E-09 -0.37521353E-09  0.67923533E-09  0.77658009E-19  0.11460238E-07
  0.12384031E-18  0.56770867E-19  0.88896013E-19  0.62733715E-09 -0.13552842E-09
 -0.14343272E-09  0.10544422E-18  0.70133575E-19  0.57412281E-09  0.10539598E-08
  0.37666377E-09  0.58221800E-09 -0.38960275E-09 -0.48247125E-08  0.38747218E-09
 -0.63881330E-10  0.21594884E-09 -0.17949631E-09
  0.61444598E-28 -0.66200272E-28 -0.63797177E-17 -0.28200347E-18 -0.44991954E-18
 -0.47064054E-19  0.53355691E-18 -0.69250789E-28  0.28599724E-28 -0.46496950E-28
  0.12365067E-27 -0.32414716E-17  0.19429597E-27 -0.83159817E-18 -0.15253325E-27
 -0.62463416E-18 -0.15926331E-27  0.40259674E-27  0.36504028E-19 -0.57500520E-19
 -0.10536134E-18  0.19484314E-19  0.15501603E-18  0.86369254E-28  0.12384031E-18
  0.85903922E-28  0.62594324E-28 -0.40152557E-28 -0.21861938E-19  0.16475955E-20
  0.39444659E-19 -0.11396456E-27 -0.10192217E-27  0.49924313E-19  0.21152508E-18
  0.14003741E-17  0.63797177E-17 -0.33240607E-18 -0.25562643E-18  0.99049834E-18
  0.22550011E-19  0.43866949E-18 -0.17885627E-17
  0.96183688E-28 -0.13374604E-27 -0.82197477E-17 -0.19289086E-17 -0.11418323E-17
 -0.15247204E-17  0.18480324E-18 -0.12951031E-27  0.54434557E-28 -0.73484967E-28
  0.23296062E-27 -0.41295801E-17  0.29805999E-27 -0.89283897E-18 -0.27185016E-27
 -0.81543138E-18 -0.21442118E-27  0.52629476E-27  0.29530367E-19 -0.49043246E-18
 -0.20319812E-18 -0.33787983E-18  0.57393067E-19  0.18791534E-27  0.56770867E-19
  0.62594324E-28  0.15992272E-27 -0.10293763E-27 -0.10427270E-18 -0.11169605E-18
 -0.10026152E-19 -0.21135190E-27 -0.33673655E-28  0.28395949E-19 -0.71399081E-20
 -0.12106430E-18  0.82197477E-17 -0.11714438E-17 -0.14555916E-17 -0.16936293E-17
 -0.22225777E-18  0.18051809E-18  0.12071612E-17
 -0.74633559E-28  0.94378898E-28  0.73591221E-17  0.39052070E-18  0.14645333E-18
  0.39735953E-18  0.44596728E-18  0.92640486E-28 -0.50986873E-28  0.47254771E-28
 -0.16055701E-27  0.44365810E-17 -0.21840781E-27  0.63236540E-18  0.20401730E-27
  0.63316520E-18  0.16436837E-27 -0.43218243E-27 -0.15508449E-19  0.93560977E-19
  0.20408488E-19  0.95196910E-19  0.11958338E-18 -0.13106315E-27  0.88896013E-19
 -0.40152557E-28 -0.10293763E-27  0.92255468E-28  0.27462169E-19  0.16530909E-19
 -0.57402930E-19  0.17794834E-27  0.57501460E-28  0.47214814E-19  0.31434442E-18
  0.21315780E-19 -0.73591221E-17  0.67133029E-19  0.45965683E-18  0.10929850E-17
 -0.84409953E-19  0.49099494E-18 -0.13169367E-17
 -0.28730249E-19  0.67622964E-19 -0.10187195E-08  0.49596319E-08  0.40605362E-08
  0.10489888E-08  0.14756772E-08  0.52321703E-19 -0.14405131E-19  0.44474028E-19
 -0.13690530E-18  0.65076230E-11 -0.12027236E-18 -0.66674290E-09  0.89605964E-19
 -0.21321562E-09  0.23434199E-19 -0.32535864E-19  0.19131150E-10  0.70501612E-09
  0.48182396E-09  0.14583289E-09  0.60295111E-09 -0.94569927E-19  0.62733715E-09
 -0.21861938E-19 -0.10427270E-18  0.27462169E-19  0.12220895E-08  0.12984985E-09
  0.11221208E-09  0.31836280E-19 -0.76192848E-19  0.43913213E-10 -0.11099705E-09
 -0.13319424E-09  0.10187195E-08  0.14629564E-08  0.18617512E-08  0.17781076E-08
  0.21448588E-09  0.15974806E-09 -0.87731730E-10
 -0.22071933E-19  0.63597330E-19 -0.24949866E-08  0.50744113E-08  0.12023344E-08
  0.45338800E-08 -0.23592596E-09  0.50540853E-19 -0.57050038E-20  0.45415350E-19
 -0.12016771E-18 -0.99320117E-09 -0.80858567E-19 -0.11999366E-08  0.82611497E-19
  0.33158768E-11  0.26036626E-19  0.10011769E-19 -0.17876246E-10  0.68093359E-09
  0.16560721E-09  0.58865460E-09 -0.16947657E-09 -0.10156711E-18 -0.13552842E-09
  0.16475955E-20 -0.11169605E-18  0.16530909E-19  0.12984985E-09  0.12970232E-08
  0.13864755E-09  0.18984614E-19 -0.15976219E-18  0.16073549E-09 -0.43251606E-09
 -0.31230982E-09  0.24949866E-08  0.16772112E-08  0.18708876E-08  0.22414606E-08
  0.36687360E-09 -0.56520958E-09 -0.43160752E-09
  0.71277532E-19 -0.31127575E-19 -0.92950237E-08  0.12891772E-08  0.43809538E-08
  0.44556125E-08 -0.23303498E-09 -0.37614520E-19  0.42783068E-19 -0.40342745E-19
  0.26380801E-19 -0.50290757E-08  0.15794299E-18 -0.40465311E-09 -0.11965820E-18
 -0.30476323E-08 -0.16267101E-18  0.42601609E-18 -0.24721356E-10  0.22222911E-09
  0.61668488E-09  0.59800080E-09 -0.13369214E-09  0.22222176E-19 -0.14343272E-09
  0.39444659E-19 -0.10026152E-19 -0.57402930E-19  0.11221208E-09  0.13864755E-09
  0.11755889E-08 -0.13372020E-18 -0.18302927E-18  0.12083803E-09  0.14519608E-09
  0.63201162E-09  0.92950237E-08  0.15324318E-08  0.19432095E-08  0.25031347E-08
  0.22343765E-09  0.41553664E-09 -0.19242246E-11
 -0.16590496E-27  0.20774526E-27  0.16885470E-16  0.54223874E-18  0.16794259E-18
  0.73230518E-18  0.52913779E-18  0.20148233E-27 -0.10410301E-27  0.10744544E-27
 -0.34084027E-27  0.86913890E-17 -0.49679762E-27  0.19658222E-17  0.43385097E-27
  0.16086504E-17  0.38431739E-27 -0.99306314E-27 -0.38817139E-19  0.12342027E-18
  0.93317219E-20  0.18813374E-18  0.14652945E-18 -0.27552325E-27  0.10544422E-18
 -0.11396456E-27 -0.21135190E-27  0.17794834E-27  0.31836280E-19  0.18984614E-19
 -0.13372020E-18  0.38387530E-27  0.16041955E-27  0.57887130E-19 -0.71346051E-18
 -0.18357855E-18 -0.16885470E-16  0.49834559E-18  0.69923158E-18  0.90727985E-18
  0.45845915E-18 -0.43288571E-19 -0.13164821E-17
 -0.87225134E-28  0.82176070E-28  0.10874828E-16 -0.19145428E-17 -0.70318509E-18
 -0.17717084E-17  0.33895558E-18  0.66090082E-28 -0.44135487E-28  0.45873795E-28
 -0.11907198E-27  0.48475749E-17 -0.24229822E-27  0.15432619E-17  0.20341455E-27
  0.13152575E-17  0.20686059E-27 -0.58973363E-27 -0.39437675E-19 -0.50897930E-18
 -0.87980123E-19 -0.42361162E-18  0.77590559E-19 -0.67773577E-28  0.70133575E-19
 -0.10192217E-27 -0.33673655E-28  0.57501460E-28 -0.76192848E-19 -0.15976219E-18
 -0.18302927E-18  0.16041955E-27  0.23924149E-27  0.54289448E-19  0.13055937E-17
  0.62608484E-20 -0.10874828E-16 -0.96405819E-18 -0.11675582E-17 -0.29617405E-17
 -0.52461602E-18 -0.82354022E-18  0.25457572E-17
 -0.96926410E-20  0.21803092E-19  0.80267608E-09 -0.44168910E-09 -0.46923346E-09
 -0.74784480E-09  0.82009275E-08 -0.31359158E-19 -0.62522746E-19 -0.44079680E-20
 -0.17812469E-19  0.15477293E-09 -0.28030725E-19  0.26318999E-09  0.25950811E-19
  0.12336664E-09 -0.72596345E-19  0.33868754E-19  0.19581680E-09 -0.20519775E-09
 -0.16203123E-09 -0.27159664E-09  0.60106400E-09  0.44114473E-19  0.57412281E-09
  0.49924313E-19  0.28395949E-19  0.47214814E-19  0.43913213E-10  0.16073549E-09
  0.12083803E-09  0.57887130E-19  0.54289448E-19  0.47200279E-08  0.12771925E-08
 -0.70712219E-09 -0.80267608E-09 -0.10520261E-08 -0.87235024E-09 -0.27772954E-08
 -0.87832163E-09  0.10880364E-08 -0.18951074E-08
 -0.34591761E-18  0.14076940E-18 -0.38511651E-08 -0.44686039E-08 -0.58966612E-09
 -0.55071831E-09  0.60723355E-08 -0.76642691E-18 -0.14143047E-19  0.25582211E-18
 -0.71561413E-18 -0.36335517E-08  0.10217112E-18  0.13708146E-07  0.23878007E-17
 -0.12466942E-08 -0.10708816E-17  0.59154088E-18 -0.66952111E-09 -0.14017653E-08
 -0.53124013E-10  0.96076155E-10  0.40099892E-09  0.75246277E-18  0.10539598E-08
  0.21152508E-18 -0.71399081E-20  0.31434442E-18 -0.11099705E-09 -0.43251606E-09
  0.14519608E-09 -0.71346051E-18  0.13055937E-17  0.12771925E-08  0.22800637E-06
  0.22781234E-07  0.38511651E-08 -0.16909070E-08 -0.35649500E-08  0.28199673E-08
 -0.10965120E-07  0.12966004E-07 -0.25077911E-08
 -0.42681877E-18  0.14937254E-17  0.61016161E-08 -0.36757504E-08  0.17157091E-08
 -0.18785115E-08 -0.21283910E-08 -0.25536977E-18  0.53346463E-18 -0.27012310E-18
  0.20630314E-18  0.27411014E-08  0.12340401E-18  0.81033676E-09  0.83859157E-18
 -0.16825505E-07 -0.24270060E-18  0.39096570E-18 -0.21631908E-09 -0.97511575E-09
  0.10235124E-08 -0.61384287E-09 -0.79998995E-09 -0.61987926E-19  0.37666377E-09
  0.14003741E-17 -0.12106430E-18  0.21315780E-19 -0.13319424E-09 -0.31230982E-09
  0.63201162E-09 -0.18357855E-18  0.62608484E-20 -0.70712219E-09  0.22781234E-07
  0.20991650E-06 -0.61016161E-08 -0.24718538E-09  0.55103896E-08 -0.37724602E-08
  0.93152367E-08 -0.34548825E-08 -0.16868965E-08
  0.79043810E-17 -0.91707709E-17 -0.84482770E-06  0.12552135E-07  0.19868799E-07
  0.17854357E-07  0.19210879E-08 -0.86023027E-17  0.43884365E-17 -0.49798378E-17
  0.14499022E-16 -0.40552986E-06  0.23001158E-16 -0.97813793E-07 -0.19865244E-16
 -0.84392708E-07 -0.18571026E-16  0.48466570E-16  0.32077386E-08  0.30687015E-08
  0.45129815E-08  0.40903307E-08  0.69066643E-09  0.11249104E-16  0.58221800E-09
  0.63797177E-17  0.82197477E-17 -0.73591221E-17  0.10187195E-08  0.24949866E-08
  0.92950237E-08 -0.16885470E-16 -0.10874828E-16 -0.80267608E-09  0.38511651E-08
 -0.61016161E-08  0.84482770E-06  0.75890332E-09  0.43607330E-08  0.41492455E-07
 -0.21060877E-08  0.11633063E-07 -0.14263109E-07
 -0.45809645E-18  0.10231885E-17 -0.75890332E-09  0.29513391E-07  0.23530355E-07
  0.23571169E-07 -0.66999756E-08  0.58256610E-18  0.11947527E-18  0.65115494E-18
 -0.14540078E-17 -0.22287147E-08 -0.18664289E-17  0.43788794E-09  0.16989776E-17
  0.91834606E-10  0.57431063E-18 -0.12601382E-17 -0.14674461E-08  0.83654103E-08
  0.42307150E-08  0.44176905E-08 -0.52538533E-08 -0.96545679E-18 -0.38960275E-09
 -0.33240607E-18 -0.11714438E-17  0.67133029E-19  0.14629564E-08  0.16772112E-08
  0.15324318E-08  0.49834559E-18 -0.96405819E-18 -0.10520261E-08 -0.16909070E-08
 -0.24718538E-09  0.75890332E-09  0.12417485E-06 -0.69580930E-08 -0.92107769E-08
  0.13623721E-07  0.20670079E-07  0.85640810E-08
 -0.29609709E-18  0.78835352E-18 -0.43607330E-08  0.29538075E-07  0.28780782E-07
  0.27877778E-07 -0.64932343E-08  0.95336943E-18 -0.36497006E-18  0.54965557E-18
 -0.23450358E-17 -0.39512283E-08 -0.17810657E-17 -0.73653544E-09  0.16025691E-17
 -0.10653964E-08  0.70741188E-18 -0.76942462E-18 -0.12937610E-09  0.58784179E-08
  0.59454871E-08  0.53828628E-08 -0.44990537E-09 -0.14317694E-17 -0.48247125E-08
 -0.25562643E-18 -0.14555916E-17  0.45965683E-18  0.18617512E-08  0.18708876E-08
  0.19432095E-08  0.69923158E-18 -0.11675582E-17 -0.87235024E-09 -0.35649500E-08
  0.55103896E-08  0.43607330E-08 -0.69580930E-08  0.12783406E-06  0.61751362E-09
  0.14410122E-07 -0.68114458E-08 -0.37970355E-07
  0.21966454E-18  0.27946764E-18 -0.41492455E-07  0.29188722E-07  0.27253035E-07
  0.34338770E-07 -0.14028035E-08  0.90559199E-18 -0.28859474E-18 -0.27457812E-18
 -0.10626661E-17 -0.11405667E-07  0.68973881E-18 -0.66318164E-08  0.38281194E-18
 -0.66876664E-08 -0.57595593E-18  0.17388865E-17 -0.10672761E-09  0.58139978E-08
  0.49361092E-08  0.79393281E-08  0.41704756E-09 -0.17776103E-17  0.38747218E-09
  0.99049834E-18 -0.16936293E-17  0.10929850E-17  0.17781076E-08  0.22414606E-08
  0.25031347E-08  0.90727985E-18 -0.29617405E-17 -0.27772954E-08  0.28199673E-08
 -0.37724602E-08  0.41492455E-07 -0.92107769E-08  0.61751362E-09  0.18241444E-06
 -0.44137830E-08  0.26598270E-07 -0.43156687E-07
 -0.26081916E-18  0.55605334E-18  0.21060877E-08  0.43141852E-08  0.31504365E-08
  0.30955504E-08 -0.44545069E-08  0.18730298E-18  0.18478322E-20  0.15386837E-18
 -0.39635824E-18  0.65065454E-09 -0.85524721E-18 -0.69277740E-09  0.13516661E-18
 -0.10951118E-08  0.50163455E-18 -0.63651024E-18 -0.84130265E-09  0.72445580E-09
  0.55146124E-09  0.42337061E-09  0.58057524E-09 -0.39970787E-18 -0.63881330E-10
  0.22550011E-19 -0.22225777E-18 -0.84409953E-19  0.21448588E-09  0.36687360E-09
  0.22343765E-09  0.45845915E-18 -0.52461602E-18 -0.87832163E-09 -0.10965120E-07
  0.93152367E-08 -0.21060877E-08  0.13623721E-07  0.14410122E-07 -0.44137830E-08
  0.94817187E-07 -0.20606881E-07  0.98414173E-08
 -0.14575915E-19  0.11621309E-18 -0.11633063E-07  0.86902480E-09  0.15205633E-08
  0.34375287E-08  0.24943326E-08 -0.29616168E-18 -0.54222655E-19 -0.88579065E-19
 -0.35004381E-18 -0.35343809E-08  0.20220921E-18 -0.44444736E-08  0.49587712E-18
  0.53084388E-09 -0.54721808E-18  0.45172461E-18 -0.20765271E-09  0.44747329E-09
  0.84892011E-10  0.10262323E-08  0.53685954E-09  0.22454415E-18  0.21594884E-09
  0.43866949E-18  0.18051809E-18  0.49099494E-18  0.15974806E-09 -0.56520958E-09
  0.41553664E-09 -0.43288571E-19 -0.82354022E-18  0.10880364E-08  0.12966004E-07
 -0.34548825E-08  0.11633063E-07  0.20670079E-07 -0.68114458E-08  0.26598270E-07
 -0.20606881E-07  0.21884538E-06  0.26682980E-07
 -0.27081287E-18  0.31681325E-18  0.14263109E-07 -0.29126285E-08 -0.38484581E-09
 -0.52702531E-08 -0.17678037E-10 -0.58130819E-18  0.43499171E-18  0.57850025E-19
  0.35143480E-18  0.44710486E-08 -0.48146459E-18  0.31509810E-08 -0.30507185E-18
  0.43480487E-08  0.63516016E-18 -0.23355751E-17 -0.21355859E-12 -0.44936257E-09
 -0.24010665E-09 -0.13027887E-08  0.77622262E-09  0.10439252E-17 -0.17949631E-09
 -0.17885627E-17  0.12071612E-17 -0.13169367E-17 -0.87731730E-10 -0.43160752E-09
 -0.19242246E-11 -0.13164821E-17  0.25457572E-17 -0.18951074E-08 -0.25077911E-08
 -0.16868965E-08 -0.14263109E-07  0.85640810E-08 -0.37970355E-07 -0.43156687E-07
  0.98414173E-08  0.26682980E-07  0.19504528E-06
]

# Tonto-specific key and data

#

# NOTE: Cartesian 9Nx9N covariance matrix in BOHR units
# The order of the variables (per atom) is as follows:
# . Elements 1-3: positions: x y x
# . Elements 4-9: 2nd order ADPs:
#      U 11 22 33 12 13 23
# . Elements 10-19: 3rd order ADPs (if refined):
#      U 111 222 333 112 113 122 223 133 233 123
# . Elements 20-34: 4th order ADPs (if refined):
#      U 1112 1113 1222 2223 1333 2333
#        1122 1133 2233 1123 1223 1233

_fragment_covariance_matrix
[
  0.84024098E-28 -0.10383085E-27 -0.79043810E-17 -0.71934216E-18 -0.27516605E-19
 -0.19382569E-18 -0.20294157E-19 -0.89247733E-28  0.42565807E-28 -0.57418756E-28
  0.16207824E-27 -0.41143838E-17  0.24229158E-27 -0.88685008E-18 -0.21397606E-27
 -0.74137373E-18 -0.18470653E-27  0.47329580E-27  0.29931130E-19 -0.21304185E-18
  0.17219919E-19 -0.31863257E-19 -0.69053374E-20  0.12284020E-27  0.67432849E-20
  0.61444598E-28  0.96183688E-28 -0.74633559E-28 -0.28730249E-19 -0.22071933E-19
  0.71277532E-19 -0.16590496E-27 -0.87225134E-28 -0.96926410E-20 -0.34591761E-18
 -0.42681877E-18  0.79043810E-17 -0.45809645E-18 -0.29609709E-18  0.21966454E-18
 -0.26081916E-18 -0.14575915E-19 -0.27081287E-18  0.34591761E-18  0.42681877E-18
  0.79043810E-17 -0.45809645E-18 -0.29609709E-18  0.21966454E-18 -0.26081916E-18
  0.14575915E-19  0.27081287E-18
 -0.10383085E-27  0.14379161E-27  0.91707709E-17  0.12057197E-17  0.57471668E-18
  0.94089827E-18  0.30919093E-18  0.11565803E-27 -0.52318846E-28  0.69677149E-28
 -0.21563903E-27  0.46618393E-17 -0.30381904E-27  0.10398566E-17  0.27187589E-27
  0.77035632E-18  0.22058972E-27 -0.56624077E-27 -0.28847982E-19  0.31773629E-18
  0.94114712E-19  0.21307039E-18  0.77974399E-19 -0.16526340E-27  0.57582242E-19
 -0.66200272E-28 -0.13374604E-27  0.94378898E-28  0.67622964E-19  0.63597330E-19
 -0.31127575E-19  0.20774526E-27  0.82176070E-28  0.21803092E-19  0.14076940E-18
  0.14937254E-17 -0.91707709E-17  0.10231885E-17  0.78835352E-18  0.27946764E-18
  0.55605334E-18  0.11621309E-18  0.31681325E-18 -0.14076940E-18 -0.14937254E-17
 -0.91707709E-17  0.10231885E-17  0.78835352E-18  0.27946764E-18  0.55605334E-18
 -0.11621309E-18 -0.31681325E-18
 -0.79043810E-17  0.91707709E-17  0.84482770E-06 -0.12552135E-07 -0.19868799E-07
 -0.17854357E-07 -0.19210879E-08  0.86023027E-17 -0.43884365E-17  0.49798378E-17
 -0.14499022E-16  0.40552986E-06 -0.23001158E-16  0.97813793E-07  0.19865244E-16
  0.84392708E-07  0.18571026E-16 -0.48466570E-16 -0.32077386E-08 -0.30687015E-08
 -0.45129815E-08 -0.40903307E-08 -0.69066643E-09 -0.11249104E-16 -0.58221800E-09
 -0.63797177E-17 -0.82197477E-17  0.73591221E-17 -0.10187195E-08 -0.24949866E-08
 -0.92950237E-08  0.16885470E-16  0.10874828E-16  0.80267608E-09 -0.38511651E-08
  0.61016161E-08 -0.84482770E-06 -0.75890332E-09 -0.43607330E-08 -0.41492455E-07
  0.21060877E-08 -0.11633063E-07  0.14263109E-07  0.38511651E-08 -0.61016161E-08
 -0.84482770E-06 -0.75890332E-09 -0.43607330E-08 -0.41492455E-07  0.21060877E-08
  0.11633063E-07 -0.14263109E-07
 -0.71934216E-18  0.12057197E-17 -0.12552135E-07  0.10347027E-06  0.25451004E-07
  0.25266130E-07 -0.79268210E-09  0.94942396E-18 -0.11952417E-18  0.11108917E-17
 -0.22407245E-17 -0.45504568E-08 -0.22552876E-17 -0.58972043E-08  0.18530488E-17
  0.87602983E-09  0.95360541E-18 -0.88017284E-18 -0.24306535E-09  0.29880362E-07
  0.33284316E-08  0.34719659E-08  0.24597347E-09 -0.17153143E-17 -0.65330122E-09
 -0.28200347E-18 -0.19289086E-17  0.39052070E-18  0.49596319E-08  0.50744113E-08
  0.12891772E-08  0.54223874E-18 -0.19145428E-17 -0.44168910E-09 -0.44686039E-08
 -0.36757504E-08  0.12552135E-07  0.29513391E-07  0.29538075E-07  0.29188722E-07
  0.43141852E-08  0.86902480E-09 -0.29126285E-08  0.44686039E-08  0.36757504E-08
  0.12552135E-07  0.29513391E-07  0.29538075E-07  0.29188722E-07  0.43141852E-08
 -0.86902480E-09  0.29126285E-08
 -0.27516605E-19  0.57471668E-18 -0.19868799E-07  0.25451004E-07  0.76257700E-07
  0.23696891E-07 -0.15479473E-08  0.62014447E-18  0.45111858E-19  0.15928119E-18
 -0.15138727E-17 -0.75760526E-08 -0.93769247E-18 -0.50543681E-09  0.76656180E-18
 -0.79824274E-08  0.11683192E-18 -0.21879763E-18 -0.27711466E-09  0.39430148E-08
  0.18608005E-07  0.31656368E-08 -0.81402800E-09 -0.10745254E-17 -0.72170723E-10
 -0.44991954E-18 -0.11418323E-17  0.14645333E-18  0.40605362E-08  0.12023344E-08
  0.43809538E-08  0.16794259E-18 -0.70318509E-18 -0.46923346E-09 -0.58966612E-09
  0.17157091E-08  0.19868799E-07  0.23530355E-07  0.28780782E-07  0.27253035E-07
  0.31504365E-08  0.15205633E-08 -0.38484581E-09  0.58966612E-09 -0.17157091E-08
  0.19868799E-07  0.23530355E-07  0.28780782E-07  0.27253035E-07  0.31504365E-08
 -0.15205633E-08  0.38484581E-09
 -0.19382569E-18  0.94089827E-18 -0.17854357E-07  0.25266130E-07  0.23696891E-07
  0.86472846E-07 -0.71613217E-08  0.79463820E-18 -0.19136644E-18  0.29006374E-18
 -0.18389296E-17 -0.12857716E-07 -0.10830216E-17 -0.11971403E-08  0.14221434E-17
 -0.22884974E-08  0.49622357E-18 -0.95339358E-18 -0.28709838E-09  0.37332979E-08
  0.31057169E-08  0.23132972E-07 -0.20502590E-08 -0.15038528E-17 -0.19873928E-08
 -0.47064054E-19 -0.15247204E-17  0.39735953E-18  0.10489888E-08  0.45338800E-08
  0.44556125E-08  0.73230518E-18 -0.17717084E-17 -0.74784480E-09 -0.55071831E-09
 -0.18785115E-08  0.17854357E-07  0.23571169E-07  0.27877778E-07  0.34338770E-07
  0.30955504E-08  0.34375287E-08 -0.52702531E-08  0.55071831E-09  0.18785115E-08
  0.17854357E-07  0.23571169E-07  0.27877778E-07  0.34338770E-07  0.30955504E-08
 -0.34375287E-08  0.52702531E-08
 -0.20294157E-19  0.30919093E-18 -0.19210879E-08 -0.79268210E-09 -0.15479473E-08
 -0.71613217E-08  0.89460509E-07 -0.23283194E-18 -0.69015751E-18 -0.16803057E-18
 -0.21677362E-18 -0.35265414E-09 -0.12930586E-18  0.33971961E-09  0.43639276E-19
 -0.13840561E-09 -0.99591059E-18  0.76200940E-18  0.15397086E-08  0.59414233E-09
  0.17743828E-09 -0.14924983E-08  0.21955474E-07  0.29003440E-18  0.19545836E-07
  0.53355691E-18  0.18480324E-18  0.44596728E-18  0.14756772E-08 -0.23592596E-09
 -0.23303498E-09  0.52913779E-18  0.33895558E-18  0.82009275E-08  0.60723355E-08
 -0.21283910E-08  0.19210879E-08 -0.66999756E-08 -0.64932343E-08 -0.14028035E-08
 -0.44545069E-08  0.24943326E-08 -0.17678037E-10 -0.60723355E-08  0.21283910E-08
  0.19210879E-08 -0.66999756E-08 -0.64932343E-08 -0.14028035E-08 -0.44545069E-08
 -0.24943326E-08  0.17678037E-10
 -0.89247733E-28  0.11565803E-27  0.86023027E-17  0.94942396E-18  0.62014447E-18
  0.79463820E-18 -0.23283194E-18  0.11813091E-27 -0.52058138E-28  0.63073694E-28
 -0.19885135E-27  0.45559657E-17 -0.27557814E-27  0.77579201E-18  0.23761573E-27
  0.87605021E-18  0.21363955E-27 -0.53047531E-27 -0.29283193E-19  0.22708909E-18
  0.11139011E-18  0.17101907E-18 -0.58850340E-19 -0.16394615E-27 -0.64789691E-19
 -0.69250789E-28 -0.12951031E-27  0.92640486E-28  0.52321703E-19  0.50540853E-19
 -0.37614520E-19  0.20148233E-27  0.66090082E-28 -0.31359158E-19 -0.76642691E-18
 -0.25536977E-18 -0.86023027E-17  0.58256610E-18  0.95336943E-18  0.90559199E-18
  0.18730298E-18 -0.29616168E-18 -0.58130819E-18  0.76642691E-18  0.25536977E-18
 -0.86023027E-17  0.58256610E-18  0.95336943E-18  0.90559199E-18  0.18730298E-18
  0.29616168E-18  0.58130819E-18
  0.42565807E-28 -0.52318846E-28 -0.43884365E-17 -0.11952417E-18  0.45111858E-19
 -0.19136644E-18 -0.69015751E-18 -0.52058138E-28  0.34105130E-28 -0.27618036E-28
  0.93227107E-28 -0.22898005E-17  0.13014561E-27 -0.41550198E-18 -0.11455571E-27
 -0.54943499E-18 -0.94141239E-28  0.25512271E-27  0.55837715E-21 -0.28139276E-19
  0.20700222E-19 -0.56816514E-19 -0.19382690E-18  0.70613256E-28 -0.13280892E-18
  0.28599724E-28  0.54434557E-28 -0.50986873E-28 -0.14405131E-19 -0.57050038E-20
  0.42783068E-19 -0.10410301E-27 -0.44135487E-28 -0.62522746E-19 -0.14143047E-19
  0.53346463E-18  0.43884365E-17  0.11947527E-18 -0.36497006E-18 -0.28859474E-18
  0.18478322E-20 -0.54222655E-19  0.43499171E-18  0.14143047E-19 -0.53346463E-18
  0.43884365E-17  0.11947527E-18 -0.36497006E-18 -0.28859474E-18  0.18478322E-20
  0.54222655E-19 -0.43499171E-18
 -0.57418756E-28  0.69677149E-28  0.49798378E-17  0.11108917E-17  0.15928119E-18
  0.29006374E-18 -0.16803057E-18  0.63073694E-28 -0.27618036E-28  0.46611536E-28
 -0.11941646E-27  0.22984477E-17 -0.17252531E-27  0.68109060E-18  0.14977607E-27
  0.59168632E-18  0.12602365E-27 -0.30906628E-27 -0.20346364E-19  0.32465694E-18
  0.13591835E-20  0.44371453E-19 -0.44104613E-19 -0.87142975E-28 -0.57801229E-19
 -0.46496950E-28 -0.73484967E-28  0.47254771E-28  0.44474028E-19  0.45415350E-19
 -0.40342745E-19  0.10744544E-27  0.45873795E-28 -0.44079680E-20  0.25582211E-18
 -0.27012310E-18 -0.49798378E-17  0.65115494E-18  0.54965557E-18 -0.27457812E-18
  0.15386837E-18 -0.88579065E-19  0.57850025E-19 -0.25582211E-18  0.27012310E-18
 -0.49798378E-17  0.65115494E-18  0.54965557E-18 -0.27457812E-18  0.15386837E-18
  0.88579065E-19 -0.57850025E-19
  0.16207824E-27 -0.21563903E-27 -0.14499022E-16 -0.22407245E-17 -0.15138727E-17
 -0.18389296E-17 -0.21677362E-18 -0.19885135E-27  0.93227107E-28 -0.11941646E-27
  0.37502979E-27 -0.72570830E-17  0.49940008E-27 -0.17009422E-17 -0.44920178E-27
 -0.15504704E-17 -0.35828006E-27  0.91255397E-27  0.49670649E-19 -0.55309458E-18
 -0.28254261E-18 -0.40335068E-18 -0.52113361E-19  0.28086535E-27  0.57808717E-20
  0.12365067E-27  0.23296062E-27 -0.16055701E-27 -0.13690530E-18 -0.12016771E-18
  0.26380801E-19 -0.34084027E-27 -0.11907198E-27 -0.17812469E-19 -0.71561413E-18
  0.20630314E-18  0.14499022E-16 -0.14540078E-17 -0.23450358E-17 -0.10626661E-17
 -0.39635824E-18 -0.35004381E-18  0.35143480E-18  0.71561413E-18 -0.20630314E-18
  0.14499022E-16 -0.14540078E-17 -0.23450358E-17 -0.10626661E-17 -0.39635824E-18
  0.35004381E-18 -0.35143480E-18
 -0.41143838E-17  0.46618393E-17  0.40552986E-06 -0.45504568E-08 -0.75760526E-08
 -0.12857716E-07 -0.35265414E-09  0.45559657E-17 -0.22898005E-17  0.22984477E-17
 -0.72570830E-17  0.42397124E-06 -0.11244108E-16 -0.69550777E-09  0.97277598E-17
 -0.47904625E-08  0.97250677E-17 -0.25134654E-16 -0.22620354E-08 -0.12071560E-08
 -0.51239713E-09 -0.50821661E-08  0.26158479E-10 -0.63468136E-17 -0.18434453E-10
 -0.32414716E-17 -0.41295801E-17  0.44365810E-17  0.65076230E-11 -0.99320117E-09
 -0.50290757E-08  0.86913890E-17  0.48475749E-17  0.15477293E-09 -0.36335517E-08
  0.27411014E-08 -0.40552986E-06 -0.22287147E-08 -0.39512283E-08 -0.11405667E-07
  0.65065454E-09 -0.35343809E-08  0.44710486E-08  0.36335517E-08 -0.27411014E-08
 -0.40552986E-06 -0.22287147E-08 -0.39512283E-08 -0.11405667E-07  0.65065454E-09
  0.35343809E-08 -0.44710486E-08
  0.24229158E-27 -0.30381904E-27 -0.23001158E-16 -0.22552876E-17 -0.93769247E-18
 -0.10830216E-17 -0.12930586E-18 -0.27557814E-27  0.13014561E-27 -0.17252531E-27
  0.49940008E-27 -0.11244108E-16  0.73079705E-27 -0.27913834E-17 -0.62918134E-27
 -0.24153583E-17 -0.54836786E-27  0.13958214E-26  0.81119106E-19 -0.61906648E-18
 -0.15122988E-18 -0.20707845E-18 -0.41401233E-19  0.37604221E-27  0.22945649E-19
  0.19429597E-27  0.29805999E-27 -0.21840781E-27 -0.12027236E-18 -0.80858567E-19
  0.15794299E-18 -0.49679762E-27 -0.24229822E-27 -0.28030725E-19  0.10217112E-18
  0.12340401E-18  0.23001158E-16 -0.18664289E-17 -0.17810657E-17  0.68973881E-18
 -0.85524721E-18  0.20220921E-18 -0.48146459E-18 -0.10217112E-18 -0.12340401E-18
  0.23001158E-16 -0.18664289E-17 -0.17810657E-17  0.68973881E-18 -0.85524721E-18
 -0.20220921E-18  0.48146459E-18
 -0.88685008E-18  0.10398566E-17  0.97813793E-07 -0.58972043E-08 -0.50543681E-09
 -0.11971403E-08  0.33971961E-09  0.77579201E-18 -0.41550198E-18  0.68109060E-18
 -0.17009422E-17 -0.69550777E-09 -0.27913834E-17  0.91461482E-07  0.25516866E-17
 -0.32377637E-08  0.20190691E-17 -0.53024788E-17  0.11149883E-08 -0.14655537E-08
  0.22472728E-09  0.23246090E-09 -0.18761993E-09 -0.89145826E-18 -0.27797635E-10
 -0.83159817E-18 -0.89283897E-18  0.63236540E-18 -0.66674290E-09 -0.11999366E-08
 -0.40465311E-09  0.19658222E-17  0.15432619E-17  0.26318999E-09  0.13708146E-07
  0.81033676E-09 -0.97813793E-07  0.43788794E-09 -0.73653544E-09 -0.66318164E-08
 -0.69277740E-09 -0.44444736E-08  0.31509810E-08 -0.13708146E-07 -0.81033676E-09
 -0.97813793E-07  0.43788794E-09 -0.73653544E-09 -0.66318164E-08 -0.69277740E-09
  0.44444736E-08 -0.31509810E-08
 -0.21397606E-27  0.27187589E-27  0.19865244E-16  0.18530488E-17  0.76656180E-18
  0.14221434E-17  0.43639276E-19  0.23761573E-27 -0.11455571E-27  0.14977607E-27
 -0.44920178E-27  0.97277598E-17 -0.62918134E-27  0.25516866E-17  0.58374761E-27
  0.20797043E-17  0.46256084E-27 -0.12016197E-26 -0.73850325E-19  0.48264619E-18
  0.10582988E-18  0.32313757E-18 -0.30928224E-19 -0.33166889E-27 -0.26709645E-19
 -0.15253325E-27 -0.27185016E-27  0.20401730E-27  0.89605964E-19  0.82611497E-19
 -0.11965820E-18  0.43385097E-27  0.20341455E-27  0.25950811E-19  0.23878007E-17
  0.83859157E-18 -0.19865244E-16  0.16989776E-17  0.16025691E-17  0.38281194E-18
  0.13516661E-18  0.49587712E-18 -0.30507185E-18 -0.23878007E-17 -0.83859157E-18
 -0.19865244E-16  0.16989776E-17  0.16025691E-17  0.38281194E-18  0.13516661E-18
 -0.49587712E-18  0.30507185E-18
 -0.74137373E-18  0.77035632E-18  0.84392708E-07  0.87602983E-09 -0.79824274E-08
 -0.22884974E-08 -0.13840561E-09  0.87605021E-18 -0.54943499E-18  0.59168632E-18
 -0.15504704E-17 -0.47904625E-08 -0.24153583E-17 -0.32377637E-08  0.20797043E-17
  0.76043171E-07  0.18081004E-17 -0.48152447E-17  0.10421378E-08  0.43290226E-09
 -0.31281545E-08  0.52910681E-09 -0.67666367E-10 -0.10012056E-17 -0.16290963E-09
 -0.62463416E-18 -0.81543138E-18  0.63316520E-18 -0.21321562E-09  0.33158768E-11
 -0.30476323E-08  0.16086504E-17  0.13152575E-17  0.12336664E-09 -0.12466942E-08
 -0.16825505E-07 -0.84392708E-07  0.91834606E-10 -0.10653964E-08 -0.66876664E-08
 -0.10951118E-08  0.53084388E-09  0.43480487E-08  0.12466942E-08  0.16825505E-07
 -0.84392708E-07  0.91834606E-10 -0.10653964E-08 -0.66876664E-08 -0.10951118E-08
 -0.53084388E-09 -0.43480487E-08
 -0.18470653E-27  0.22058972E-27  0.18571026E-16  0.95360541E-18  0.11683192E-18
  0.49622357E-18 -0.99591059E-18  0.21363955E-27 -0.94141239E-28  0.12602365E-27
 -0.35828006E-27  0.97250677E-17 -0.54836786E-27  0.20190691E-17  0.46256084E-27
  0.18081004E-17  0.44636055E-27 -0.11173994E-26 -0.91431508E-19  0.25619650E-18
 -0.12407886E-19  0.10177599E-18 -0.24085483E-18 -0.28631853E-27 -0.24683025E-18
 -0.15926331E-27 -0.21442118E-27  0.16436837E-27  0.23434199E-19  0.26036626E-19
 -0.16267101E-18  0.38431739E-27  0.20686059E-27 -0.72596345E-19 -0.10708816E-17
 -0.24270060E-18 -0.18571026E-16  0.57431063E-18  0.70741188E-18 -0.57595593E-18
  0.50163455E-18 -0.54721808E-18  0.63516016E-18  0.10708816E-17  0.24270060E-18
 -0.18571026E-16  0.57431063E-18  0.70741188E-18 -0.57595593E-18  0.50163455E-18
  0.54721808E-18 -0.63516016E-18
  0.47329580E-27 -0.56624077E-27 -0.48466570E-16 -0.88017284E-18 -0.21879763E-18
 -0.95339358E-18  0.76200940E-18 -0.53047531E-27  0.25512271E-27 -0.30906628E-27
  0.91255397E-27 -0.25134654E-16  0.13958214E-26 -0.53024788E-17 -0.12016197E-26
 -0.48152447E-17 -0.11173994E-26  0.28835444E-26  0.19558364E-18 -0.19280621E-18
 -0.27050268E-21 -0.22900119E-18  0.20986400E-18  0.70765566E-27  0.19249253E-18
  0.40259674E-27  0.52629476E-27 -0.43218243E-27 -0.32535864E-19  0.10011769E-19
  0.42601609E-18 -0.99306314E-27 -0.58973363E-27  0.33868754E-19  0.59154088E-18
  0.39096570E-18  0.48466570E-16 -0.12601382E-17 -0.76942462E-18  0.17388865E-17
 -0.63651024E-18  0.45172461E-18 -0.23355751E-17 -0.59154088E-18 -0.39096570E-18
  0.48466570E-16 -0.12601382E-17 -0.76942462E-18  0.17388865E-17 -0.63651024E-18
 -0.45172461E-18  0.23355751E-17
  0.29931130E-19 -0.28847982E-19 -0.32077386E-08 -0.24306535E-09 -0.27711466E-09
 -0.28709838E-09  0.15397086E-08 -0.29283193E-19  0.55837715E-21 -0.20346364E-19
  0.49670649E-19 -0.22620354E-08  0.81119106E-19  0.11149883E-08 -0.73850325E-19
  0.10421378E-08 -0.91431508E-19  0.19558364E-18  0.60886972E-08 -0.45588156E-10
 -0.75963420E-10 -0.33387606E-10  0.60283702E-09  0.50705524E-19  0.20769314E-09
  0.36504028E-19  0.29530367E-19 -0.15508449E-19  0.19131150E-10 -0.17876246E-10
 -0.24721356E-10 -0.38817139E-19 -0.39437675E-19  0.19581680E-09 -0.66952111E-09
 -0.21631908E-09  0.32077386E-08 -0.14674461E-08 -0.12937610E-09 -0.10672761E-09
 -0.84130265E-09 -0.20765271E-09 -0.21355859E-12  0.66952111E-09  0.21631908E-09
  0.32077386E-08 -0.14674461E-08 -0.12937610E-09 -0.10672761E-09 -0.84130265E-09
  0.20765271E-09  0.21355859E-12
 -0.21304185E-18  0.31773629E-18 -0.30687015E-08  0.29880362E-07  0.39430148E-08
  0.37332979E-08  0.59414233E-09  0.22708909E-18 -0.28139276E-19  0.32465694E-18
 -0.55309458E-18 -0.12071560E-08 -0.61906648E-18 -0.14655537E-08  0.48264619E-18
  0.43290226E-09  0.25619650E-18 -0.19280621E-18 -0.45588156E-10  0.12232335E-07
  0.52064436E-09  0.52313798E-09  0.84996199E-09 -0.41813090E-18 -0.40152122E-09
 -0.57500520E-19 -0.49043246E-18  0.93560977E-19  0.70501612E-09  0.68093359E-09
  0.22222911E-09  0.12342027E-18 -0.50897930E-18 -0.20519775E-09 -0.14017653E-08
 -0.97511575E-09  0.30687015E-08  0.83654103E-08  0.58784179E-08  0.58139978E-08
  0.72445580E-09  0.44747329E-09 -0.44936257E-09  0.14017653E-08  0.97511575E-09
  0.30687015E-08  0.83654103E-08  0.58784179E-08  0.58139978E-08  0.72445580E-09
 -0.44747329E-09  0.44936257E-09
  0.17219919E-19  0.94114712E-19 -0.45129815E-08  0.33284316E-08  0.18608005E-07
  0.31057169E-08  0.17743828E-09  0.11139011E-18  0.20700222E-19  0.13591835E-20
 -0.28254261E-18 -0.51239713E-09 -0.15122988E-18  0.22472728E-09  0.10582988E-18
 -0.31281545E-08 -0.12407886E-19 -0.27050268E-21 -0.75963420E-10  0.52064436E-09
  0.63796587E-08  0.38203181E-09 -0.36658126E-09 -0.19305105E-18  0.50560261E-09
 -0.10536134E-18 -0.20319812E-18  0.20408488E-19  0.48182396E-09  0.16560721E-09
  0.61668488E-09  0.93317219E-20 -0.87980123E-19 -0.16203123E-09 -0.53124013E-10
  0.10235124E-08  0.45129815E-08  0.42307150E-08  0.59454871E-08  0.49361092E-08
  0.55146124E-09  0.84892011E-10 -0.24010665E-09  0.53124013E-10 -0.10235124E-08
  0.45129815E-08  0.42307150E-08  0.59454871E-08  0.49361092E-08  0.55146124E-09
 -0.84892011E-10  0.24010665E-09
 -0.31863257E-19  0.21307039E-18 -0.40903307E-08  0.34719659E-08  0.31656368E-08
  0.23132972E-07 -0.14924983E-08  0.17101907E-18 -0.56816514E-19  0.44371453E-19
 -0.40335068E-18 -0.50821661E-08 -0.20707845E-18  0.23246090E-09  0.32313757E-18
  0.52910681E-09  0.10177599E-18 -0.22900119E-18 -0.33387606E-10  0.52313798E-09
  0.38203181E-09  0.85996927E-08 -0.37466619E-09 -0.33385878E-18 -0.37521353E-09
  0.19484314E-19 -0.33787983E-18  0.95196910E-19  0.14583289E-09  0.58865460E-09
  0.59800080E-09  0.18813374E-18 -0.42361162E-18 -0.27159664E-09  0.96076155E-10
 -0.61384287E-09  0.40903307E-08  0.44176905E-08  0.53828628E-08  0.79393281E-08
  0.42337061E-09  0.10262323E-08 -0.13027887E-08 -0.96076155E-10  0.61384287E-09
  0.40903307E-08  0.44176905E-08  0.53828628E-08  0.79393281E-08  0.42337061E-09
 -0.10262323E-08  0.13027887E-08
 -0.69053374E-20  0.77974399E-19 -0.69066643E-09  0.24597347E-09 -0.81402800E-09
 -0.20502590E-08  0.21955474E-07 -0.58850340E-19 -0.19382690E-18 -0.44104613E-19
 -0.52113361E-19  0.26158479E-10 -0.41401233E-19 -0.18761993E-09 -0.30928224E-19
 -0.67666367E-10 -0.24085483E-18  0.20986400E-18  0.60283702E-09  0.84996199E-09
 -0.36658126E-09 -0.37466619E-09  0.13824731E-07  0.70343735E-19  0.67923533E-09
  0.15501603E-18  0.57393067E-19  0.11958338E-18  0.60295111E-09 -0.16947657E-09
 -0.13369214E-09  0.14652945E-18  0.77590559E-19  0.60106400E-09  0.40099892E-09
 -0.79998995E-09  0.69066643E-09 -0.52538533E-08 -0.44990537E-09  0.41704756E-09
  0.58057524E-09  0.53685954E-09  0.77622262E-09 -0.40099892E-09  0.79998995E-09
  0.69066643E-09 -0.52538533E-08 -0.44990537E-09  0.41704756E-09  0.58057524E-09
 -0.53685954E-09 -0.77622262E-09
  0.12284020E-27 -0.16526340E-27 -0.11249104E-16 -0.17153143E-17 -0.10745254E-17
 -0.15038528E-17  0.29003440E-18 -0.16394615E-27  0.70613256E-28 -0.87142975E-28
  0.28086535E-27 -0.63468136E-17  0.37604221E-27 -0.89145826E-18 -0.33166889E-27
 -0.10012056E-17 -0.28631853E-27  0.70765566E-27  0.50705524E-19 -0.41813090E-18
 -0.19305105E-18 -0.33385878E-18  0.70343735E-19  0.23355356E-27  0.77658009E-19
  0.86369254E-28  0.18791534E-27 -0.13106315E-27 -0.94569927E-19 -0.10156711E-18
  0.22222176E-19 -0.27552325E-27 -0.67773577E-28  0.44114473E-19  0.75246277E-18
 -0.61987926E-19  0.11249104E-16 -0.96545679E-18 -0.14317694E-17 -0.17776103E-17
 -0.39970787E-18  0.22454415E-18  0.10439252E-17 -0.75246277E-18  0.61987926E-19
  0.11249104E-16 -0.96545679E-18 -0.14317694E-17 -0.17776103E-17 -0.39970787E-18
 -0.22454415E-18 -0.10439252E-17
  0.67432849E-20  0.57582242E-19 -0.58221800E-09 -0.65330122E-09 -0.72170723E-10
 -0.19873928E-08  0.19545836E-07 -0.64789691E-19 -0.13280892E-18 -0.57801229E-19
  0.57808717E-20 -0.18434453E-10  0.22945649E-19 -0.27797635E-10 -0.26709645E-19
 -0.16290963E-09 -0.24683025E-18  0.19249253E-18  0.20769314E-09 -0.40152122E-09
  0.50560261E-09 -0.37521353E-09  0.67923533E-09  0.77658009E-19  0.11460238E-07
  0.12384031E-18  0.56770867E-19  0.88896013E-19  0.62733715E-09 -0.13552842E-09
 -0.14343272E-09  0.10544422E-18  0.70133575E-19  0.57412281E-09  0.10539598E-08
  0.37666377E-09  0.58221800E-09 -0.38960275E-09 -0.48247125E-08  0.38747218E-09
 -0.63881330E-10  0.21594884E-09 -0.17949631E-09 -0.10539598E-08 -0.37666377E-09
  0.58221800E-09 -0.38960275E-09 -0.48247125E-08  0.38747218E-09 -0.63881330E-10
 -0.21594884E-09  0.17949631E-09
  0.61444598E-28 -0.66200272E-28 -0.63797177E-17 -0.28200347E-18 -0.44991954E-18
 -0.47064054E-19  0.53355691E-18 -0.69250789E-28  0.28599724E-28 -0.46496950E-28
  0.12365067E-27 -0.32414716E-17  0.19429597E-27 -0.83159817E-18 -0.15253325E-27
 -0.62463416E-18 -0.15926331E-27  0.40259674E-27  0.36504028E-19 -0.57500520E-19
 -0.10536134E-18  0.19484314E-19  0.15501603E-18  0.86369254E-28  0.12384031E-18
  0.85903922E-28  0.62594324E-28 -0.40152557E-28 -0.21861938E-19  0.16475955E-20
  0.39444659E-19 -0.11396456E-27 -0.10192217E-27  0.49924313E-19  0.21152508E-18
  0.14003741E-17  0.63797177E-17 -0.33240607E-18 -0.25562643E-18  0.99049834E-18
  0.22550011E-19  0.43866949E-18 -0.17885627E-17 -0.21152508E-18 -0.14003741E-17
  0.63797177E-17 -0.33240607E-18 -0.25562643E-18  0.99049834E-18  0.22550011E-19
 -0.43866949E-18  0.17885627E-17
  0.96183688E-28 -0.13374604E-27 -0.82197477E-17 -0.19289086E-17 -0.11418323E-17
 -0.15247204E-17  0.18480324E-18 -0.12951031E-27  0.54434557E-28 -0.73484967E-28
  0.23296062E-27 -0.41295801E-17  0.29805999E-27 -0.89283897E-18 -0.27185016E-27
 -0.81543138E-18 -0.21442118E-27  0.52629476E-27  0.29530367E-19 -0.49043246E-18
 -0.20319812E-18 -0.33787983E-18  0.57393067E-19  0.18791534E-27  0.56770867E-19
  0.62594324E-28  0.15992272E-27 -0.10293763E-27 -0.10427270E-18 -0.11169605E-18
 -0.10026152E-19 -0.21135190E-27 -0.33673655E-28  0.28395949E-19 -0.71399081E-20
 -0.12106430E-18  0.82197477E-17 -0.11714438E-17 -0.14555916E-17 -0.16936293E-17
 -0.22225777E-18  0.18051809E-18  0.12071612E-17  0.71399081E-20  0.12106430E-18
  0.82197477E-17 -0.11714438E-17 -0.14555916E-17 -0.16936293E-17 -0.22225777E-18
 -0.18051809E-18 -0.12071612E-17
 -0.74633559E-28  0.94378898E-28  0.73591221E-17  0.39052070E-18  0.14645333E-18
  0.39735953E-18  0.44596728E-18  0.92640486E-28 -0.50986873E-28  0.47254771E-28
 -0.16055701E-27  0.44365810E-17 -0.21840781E-27  0.63236540E-18  0.20401730E-27
  0.63316520E-18  0.16436837E-27 -0.43218243E-27 -0.15508449E-19  0.93560977E-19
  0.20408488E-19  0.95196910E-19  0.11958338E-18 -0.13106315E-27  0.88896013E-19
 -0.40152557E-28 -0.10293763E-27  0.92255468E-28  0.27462169E-19  0.16530909E-19
 -0.57402930E-19  0.17794834E-27  0.57501460E-28  0.47214814E-19  0.31434442E-18
  0.21315780E-19 -0.73591221E-17  0.67133029E-19  0.45965683E-18  0.10929850E-17
 -0.84409953E-19  0.49099494E-18 -0.13169367E-17 -0.31434442E-18 -0.21315780E-19
 -0.73591221E-17  0.67133029E-19  0.45965683E-18  0.10929850E-17 -0.84409953E-19
 -0.49099494E-18  0.13169367E-17
 -0.28730249E-19  0.67622964E-19 -0.10187195E-08  0.49596319E-08  0.40605362E-08
  0.10489888E-08  0.14756772E-08  0.52321703E-19 -0.14405131E-19  0.44474028E-19
 -0.13690530E-18  0.65076230E-11 -0.12027236E-18 -0.66674290E-09  0.89605964E-19
 -0.21321562E-09  0.23434199E-19 -0.32535864E-19  0.19131150E-10  0.70501612E-09
  0.48182396E-09  0.14583289E-09  0.60295111E-09 -0.94569927E-19  0.62733715E-09
 -0.21861938E-19 -0.10427270E-18  0.27462169E-19  0.12220895E-08  0.12984985E-09
  0.11221208E-09  0.31836280E-19 -0.76192848E-19  0.43913213E-10 -0.11099705E-09
 -0.13319424E-09  0.10187195E-08  0.14629564E-08  0.18617512E-08  0.17781076E-08
  0.21448588E-09  0.15974806E-09 -0.87731730E-10  0.11099705E-09  0.13319424E-09
  0.10187195E-08  0.14629564E-08  0.18617512E-08  0.17781076E-08  0.21448588E-09
 -0.15974806E-09  0.87731730E-10
 -0.22071933E-19  0.63597330E-19 -0.24949866E-08  0.50744113E-08  0.12023344E-08
  0.45338800E-08 -0.23592596E-09  0.50540853E-19 -0.57050038E-20  0.45415350E-19
 -0.12016771E-18 -0.99320117E-09 -0.80858567E-19 -0.11999366E-08  0.82611497E-19
  0.33158768E-11  0.26036626E-19  0.10011769E-19 -0.17876246E-10  0.68093359E-09
  0.16560721E-09  0.58865460E-09 -0.16947657E-09 -0.10156711E-18 -0.13552842E-09
  0.16475955E-20 -0.11169605E-18  0.16530909E-19  0.12984985E-09  0.12970232E-08
  0.13864755E-09  0.18984614E-19 -0.15976219E-18  0.16073549E-09 -0.43251606E-09
 -0.31230982E-09  0.24949866E-08  0.16772112E-08  0.18708876E-08  0.22414606E-08
  0.36687360E-09 -0.56520958E-09 -0.43160752E-09  0.43251606E-09  0.31230982E-09
  0.24949866E-08  0.16772112E-08  0.18708876E-08  0.22414606E-08  0.36687360E-09
  0.56520958E-09  0.43160752E-09
  0.71277532E-19 -0.31127575E-19 -0.92950237E-08  0.12891772E-08  0.43809538E-08
  0.44556125E-08 -0.23303498E-09 -0.37614520E-19  0.42783068E-19 -0.40342745E-19
  0.26380801E-19 -0.50290757E-08  0.15794299E-18 -0.40465311E-09 -0.11965820E-18
 -0.30476323E-08 -0.16267101E-18  0.42601609E-18 -0.24721356E-10  0.22222911E-09
  0.61668488E-09  0.59800080E-09 -0.13369214E-09  0.22222176E-19 -0.14343272E-09
  0.39444659E-19 -0.10026152E-19 -0.57402930E-19  0.11221208E-09  0.13864755E-09
  0.11755889E-08 -0.13372020E-18 -0.18302927E-18  0.12083803E-09  0.14519608E-09
  0.63201162E-09  0.92950237E-08  0.15324318E-08  0.19432095E-08  0.25031347E-08
  0.22343765E-09  0.41553664E-09 -0.19242246E-11 -0.14519608E-09 -0.63201162E-09
  0.92950237E-08  0.15324318E-08  0.19432095E-08  0.25031347E-08  0.22343765E-09
 -0.41553664E-09  0.19242246E-11
 -0.16590496E-27  0.20774526E-27  0.16885470E-16  0.54223874E-18  0.16794259E-18
  0.73230518E-18  0.52913779E-18  0.20148233E-27 -0.10410301E-27  0.10744544E-27
 -0.34084027E-27  0.86913890E-17 -0.49679762E-27  0.19658222E-17  0.43385097E-27
  0.16086504E-17  0.38431739E-27 -0.99306314E-27 -0.38817139E-19  0.12342027E-18
  0.93317219E-20  0.18813374E-18  0.14652945E-18 -0.27552325E-27  0.10544422E-18
 -0.11396456E-27 -0.21135190E-27  0.17794834E-27  0.31836280E-19  0.18984614E-19
 -0.13372020E-18  0.38387530E-27  0.16041955E-27  0.57887130E-19 -0.71346051E-18
 -0.18357855E-18 -0.16885470E-16  0.49834559E-18  0.69923158E-18  0.90727985E-18
  0.45845915E-18 -0.43288571E-19 -0.13164821E-17  0.71346051E-18  0.18357855E-18
 -0.16885470E-16  0.49834559E-18  0.69923158E-18  0.90727985E-18  0.45845915E-18
  0.43288571E-19  0.13164821E-17
 -0.87225134E-28  0.82176070E-28  0.10874828E-16 -0.19145428E-17 -0.70318509E-18
 -0.17717084E-17  0.33895558E-18  0.66090082E-28 -0.44135487E-28  0.45873795E-28
 -0.11907198E-27  0.48475749E-17 -0.24229822E-27  0.15432619E-17  0.20341455E-27
  0.13152575E-17  0.20686059E-27 -0.58973363E-27 -0.39437675E-19 -0.50897930E-18
 -0.87980123E-19 -0.42361162E-18  0.77590559E-19 -0.67773577E-28  0.70133575E-19
 -0.10192217E-27 -0.33673655E-28  0.57501460E-28 -0.76192848E-19 -0.15976219E-18
 -0.18302927E-18  0.16041955E-27  0.23924149E-27  0.54289448E-19  0.13055937E-17
  0.62608484E-20 -0.10874828E-16 -0.96405819E-18 -0.11675582E-17 -0.29617405E-17
 -0.52461602E-18 -0.82354022E-18  0.25457572E-17 -0.13055937E-17 -0.62608484E-20
 -0.10874828E-16 -0.96405819E-18 -0.11675582E-17 -0.29617405E-17 -0.52461602E-18
  0.82354022E-18 -0.25457572E-17
 -0.96926410E-20  0.21803092E-19  0.80267608E-09 -0.44168910E-09 -0.46923346E-09
 -0.74784480E-09  0.82009275E-08 -0.31359158E-19 -0.62522746E-19 -0.44079680E-20
 -0.17812469E-19  0.15477293E-09 -0.28030725E-19  0.26318999E-09  0.25950811E-19
  0.12336664E-09 -0.72596345E-19  0.33868754E-19  0.19581680E-09 -0.20519775E-09
 -0.16203123E-09 -0.27159664E-09  0.60106400E-09  0.44114473E-19  0.57412281E-09
  0.49924313E-19  0.28395949E-19  0.47214814E-19  0.43913213E-10  0.16073549E-09
  0.12083803E-09  0.57887130E-19  0.54289448E-19  0.47200279E-08  0.12771925E-08
 -0.70712219E-09 -0.80267608E-09 -0.10520261E-08 -0.87235024E-09 -0.27772954E-08
 -0.87832163E-09  0.10880364E-08 -0.18951074E-08 -0.12771925E-08  0.70712219E-09
 -0.80267608E-09 -0.10520261E-08 -0.87235024E-09 -0.27772954E-08 -0.87832163E-09
 -0.10880364E-08  0.18951074E-08
 -0.34591761E-18  0.14076940E-18 -0.38511651E-08 -0.44686039E-08 -0.58966612E-09
 -0.55071831E-09  0.60723355E-08 -0.76642691E-18 -0.14143047E-19  0.25582211E-18
 -0.71561413E-18 -0.36335517E-08  0.10217112E-18  0.13708146E-07  0.23878007E-17
 -0.12466942E-08 -0.10708816E-17  0.59154088E-18 -0.66952111E-09 -0.14017653E-08
 -0.53124013E-10  0.96076155E-10  0.40099892E-09  0.75246277E-18  0.10539598E-08
  0.21152508E-18 -0.71399081E-20  0.31434442E-18 -0.11099705E-09 -0.43251606E-09
  0.14519608E-09 -0.71346051E-18  0.13055937E-17  0.12771925E-08  0.22800637E-06
  0.22781234E-07  0.38511651E-08 -0.16909070E-08 -0.35649500E-08  0.28199673E-08
 -0.10965120E-07  0.12966004E-07 -0.25077911E-08 -0.22800637E-06 -0.22781234E-07
  0.38511651E-08 -0.16909070E-08 -0.35649500E-08  0.28199673E-08 -0.10965120E-07
 -0.12966004E-07  0.25077911E-08
 -0.42681877E-18  0.14937254E-17  0.61016161E-08 -0.36757504E-08  0.17157091E-08
 -0.18785115E-08 -0.21283910E-08 -0.25536977E-18  0.53346463E-18 -0.27012310E-18
  0.20630314E-18  0.27411014E-08  0.12340401E-18  0.81033676E-09  0.83859157E-18
 -0.16825505E-07 -0.24270060E-18  0.39096570E-18 -0.21631908E-09 -0.97511575E-09
  0.10235124E-08 -0.61384287E-09 -0.79998995E-09 -0.61987926E-19  0.37666377E-09
  0.14003741E-17 -0.12106430E-18  0.21315780E-19 -0.13319424E-09 -0.31230982E-09
  0.63201162E-09 -0.18357855E-18  0.62608484E-20 -0.70712219E-09  0.22781234E-07
  0.20991650E-06 -0.61016161E-08 -0.24718538E-09  0.55103896E-08 -0.37724602E-08
  0.93152367E-08 -0.34548825E-08 -0.16868965E-08 -0.22781234E-07 -0.20991650E-06
 -0.61016161E-08 -0.24718538E-09  0.55103896E-08 -0.37724602E-08  0.93152367E-08
  0.34548825E-08  0.16868965E-08
  0.79043810E-17 -0.91707709E-17 -0.84482770E-06  0.12552135E-07  0.19868799E-07
  0.17854357E-07  0.19210879E-08 -0.86023027E-17  0.43884365E-17 -0.49798378E-17
  0.14499022E-16 -0.40552986E-06  0.23001158E-16 -0.97813793E-07 -0.19865244E-16
 -0.84392708E-07 -0.18571026E-16  0.48466570E-16  0.32077386E-08  0.30687015E-08
  0.45129815E-08  0.40903307E-08  0.69066643E-09  0.11249104E-16  0.58221800E-09
  0.63797177E-17  0.82197477E-17 -0.73591221E-17  0.10187195E-08  0.24949866E-08
  0.92950237E-08 -0.16885470E-16 -0.10874828E-16 -0.80267608E-09  0.38511651E-08
 -0.61016161E-08  0.84482770E-06  0.75890332E-09  0.43607330E-08  0.41492455E-07
 -0.21060877E-08  0.11633063E-07 -0.14263109E-07 -0.38511651E-08  0.61016161E-08
  0.84482770E-06  0.75890332E-09  0.43607330E-08  0.41492455E-07 -0.21060877E-08
 -0.11633063E-07  0.14263109E-07
 -0.45809645E-18  0.10231885E-17 -0.75890332E-09  0.29513391E-07  0.23530355E-07
  0.23571169E-07 -0.66999756E-08  0.58256610E-18  0.11947527E-18  0.65115494E-18
 -0.14540078E-17 -0.22287147E-08 -0.18664289E-17  0.43788794E-09  0.16989776E-17
  0.91834606E-10  0.57431063E-18 -0.12601382E-17 -0.14674461E-08  0.83654103E-08
  0.42307150E-08  0.44176905E-08 -0.52538533E-08 -0.96545679E-18 -0.38960275E-09
 -0.33240607E-18 -0.11714438E-17  0.67133029E-19  0.14629564E-08  0.16772112E-08
  0.15324318E-08  0.49834559E-18 -0.96405819E-18 -0.10520261E-08 -0.16909070E-08
 -0.24718538E-09  0.75890332E-09  0.12417485E-06 -0.69580930E-08 -0.92107769E-08
  0.13623721E-07  0.20670079E-07  0.85640810E-08  0.16909070E-08  0.24718538E-09
  0.75890332E-09  0.12417485E-06 -0.69580930E-08 -0.92107769E-08  0.13623721E-07
 -0.20670079E-07 -0.85640810E-08
 -0.29609709E-18  0.78835352E-18 -0.43607330E-08  0.29538075E-07  0.28780782E-07
  0.27877778E-07 -0.64932343E-08  0.95336943E-18 -0.36497006E-18  0.54965557E-18
 -0.23450358E-17 -0.39512283E-08 -0.17810657E-17 -0.73653544E-09  0.16025691E-17
 -0.10653964E-08  0.70741188E-18 -0.76942462E-18 -0.12937610E-09  0.58784179E-08
  0.59454871E-08  0.53828628E-08 -0.44990537E-09 -0.14317694E-17 -0.48247125E-08
 -0.25562643E-18 -0.14555916E-17  0.45965683E-18  0.18617512E-08  0.18708876E-08
  0.19432095E-08  0.69923158E-18 -0.11675582E-17 -0.87235024E-09 -0.35649500E-08
  0.55103896E-08  0.43607330E-08 -0.69580930E-08  0.12783406E-06  0.61751362E-09
  0.14410122E-07 -0.68114458E-08 -0.37970355E-07  0.35649500E-08 -0.55103896E-08
  0.43607330E-08 -0.69580930E-08  0.12783406E-06  0.61751362E-09  0.14410122E-07
  0.68114458E-08  0.37970355E-07
  0.21966454E-18  0.27946764E-18 -0.41492455E-07  0.29188722E-07  0.27253035E-07
  0.34338770E-07 -0.14028035E-08  0.90559199E-18 -0.28859474E-18 -0.27457812E-18
 -0.10626661E-17 -0.11405667E-07  0.68973881E-18 -0.66318164E-08  0.38281194E-18
 -0.66876664E-08 -0.57595593E-18  0.17388865E-17 -0.10672761E-09  0.58139978E-08
  0.49361092E-08  0.79393281E-08  0.41704756E-09 -0.17776103E-17  0.38747218E-09
  0.99049834E-18 -0.16936293E-17  0.10929850E-17  0.17781076E-08  0.22414606E-08
  0.25031347E-08  0.90727985E-18 -0.29617405E-17 -0.27772954E-08  0.28199673E-08
 -0.37724602E-08  0.41492455E-07 -0.92107769E-08  0.61751362E-09  0.18241444E-06
 -0.44137830E-08  0.26598270E-07 -0.43156687E-07 -0.28199673E-08  0.37724602E-08
  0.41492455E-07 -0.92107769E-08  0.61751362E-09  0.18241444E-06 -0.44137830E-08
 -0.26598270E-07  0.43156687E-07
 -0.26081916E-18  0.55605334E-18  0.21060877E-08  0.43141852E-08  0.31504365E-08
  0.30955504E-08 -0.44545069E-08  0.18730298E-18  0.18478322E-20  0.15386837E-18
 -0.39635824E-18  0.65065454E-09 -0.85524721E-18 -0.69277740E-09  0.13516661E-18
 -0.10951118E-08  0.50163455E-18 -0.63651024E-18 -0.84130265E-09  0.72445580E-09
  0.55146124E-09  0.42337061E-09  0.58057524E-09 -0.39970787E-18 -0.63881330E-10
  0.22550011E-19 -0.22225777E-18 -0.84409953E-19  0.21448588E-09  0.36687360E-09
  0.22343765E-09  0.45845915E-18 -0.52461602E-18 -0.87832163E-09 -0.10965120E-07
  0.93152367E-08 -0.21060877E-08  0.13623721E-07  0.14410122E-07 -0.44137830E-08
  0.94817187E-07 -0.20606881E-07  0.98414173E-08  0.10965120E-07 -0.93152367E-08
 -0.21060877E-08  0.13623721E-07  0.14410122E-07 -0.44137830E-08  0.94817187E-07
  0.20606881E-07 -0.98414173E-08
 -0.14575915E-19  0.11621309E-18 -0.11633063E-07  0.86902480E-09  0.15205633E-08
  0.34375287E-08  0.24943326E-08 -0.29616168E-18 -0.54222655E-19 -0.88579065E-19
 -0.35004381E-18 -0.35343809E-08  0.20220921E-18 -0.44444736E-08  0.49587712E-18
  0.53084388E-09 -0.54721808E-18  0.45172461E-18 -0.20765271E-09  0.44747329E-09
  0.84892011E-10  0.10262323E-08  0.53685954E-09  0.22454415E-18  0.21594884E-09
  0.43866949E-18  0.18051809E-18  0.49099494E-18  0.15974806E-09 -0.56520958E-09
  0.41553664E-09 -0.43288571E-19 -0.82354022E-18  0.10880364E-08  0.12966004E-07
 -0.34548825E-08  0.11633063E-07  0.20670079E-07 -0.68114458E-08  0.26598270E-07
 -0.20606881E-07  0.21884538E-06  0.26682980E-07 -0.12966004E-07  0.34548825E-08
  0.11633063E-07  0.20670079E-07 -0.68114458E-08  0.26598270E-07 -0.20606881E-07
 -0.21884538E-06 -0.26682980E-07
 -0.27081287E-18  0.31681325E-18  0.14263109E-07 -0.29126285E-08 -0.38484581E-09
 -0.52702531E-08 -0.17678037E-10 -0.58130819E-18  0.43499171E-18  0.57850025E-19
  0.35143480E-18  0.44710486E-08 -0.48146459E-18  0.31509810E-08 -0.30507185E-18
  0.43480487E-08  0.63516016E-18 -0.23355751E-17 -0.21355859E-12 -0.44936257E-09
 -0.24010665E-09 -0.13027887E-08  0.77622262E-09  0.10439252E-17 -0.17949631E-09
 -0.17885627E-17  0.12071612E-17 -0.13169367E-17 -0.87731730E-10 -0.43160752E-09
 -0.19242246E-11 -0.13164821E-17  0.25457572E-17 -0.18951074E-08 -0.25077911E-08
 -0.16868965E-08 -0.14263109E-07  0.85640810E-08 -0.37970355E-07 -0.43156687E-07
  0.98414173E-08  0.26682980E-07  0.19504528E-06  0.25077911E-08  0.16868965E-08
 -0.14263109E-07  0.85640810E-08 -0.37970355E-07 -0.43156687E-07  0.98414173E-08
 -0.26682980E-07 -0.19504528E-06
  0.34591761E-18 -0.14076940E-18  0.38511651E-08  0.44686039E-08  0.58966612E-09
  0.55071831E-09 -0.60723355E-08  0.76642691E-18  0.14143047E-19 -0.25582211E-18
  0.71561413E-18  0.36335517E-08 -0.10217112E-18 -0.13708146E-07 -0.23878007E-17
  0.12466942E-08  0.10708816E-17 -0.59154088E-18  0.66952111E-09  0.14017653E-08
  0.53124013E-10 -0.96076155E-10 -0.40099892E-09 -0.75246277E-18 -0.10539598E-08
 -0.21152508E-18  0.71399081E-20 -0.31434442E-18  0.11099705E-09  0.43251606E-09
 -0.14519608E-09  0.71346051E-18 -0.13055937E-17 -0.12771925E-08 -0.22800637E-06
 -0.22781234E-07 -0.38511651E-08  0.16909070E-08  0.35649500E-08 -0.28199673E-08
  0.10965120E-07 -0.12966004E-07  0.25077911E-08  0.22800637E-06  0.22781234E-07
 -0.38511651E-08  0.16909070E-08  0.35649500E-08 -0.28199673E-08  0.10965120E-07
  0.12966004E-07 -0.25077911E-08
  0.42681877E-18 -0.14937254E-17 -0.61016161E-08  0.36757504E-08 -0.17157091E-08
  0.18785115E-08  0.21283910E-08  0.25536977E-18 -0.53346463E-18  0.27012310E-18
 -0.20630314E-18 -0.27411014E-08 -0.12340401E-18 -0.81033676E-09 -0.83859157E-18
  0.16825505E-07  0.24270060E-18 -0.39096570E-18  0.21631908E-09  0.97511575E-09
 -0.10235124E-08  0.61384287E-09  0.79998995E-09  0.61987926E-19 -0.37666377E-09
 -0.14003741E-17  0.12106430E-18 -0.21315780E-19  0.13319424E-09  0.31230982E-09
 -0.63201162E-09  0.18357855E-18 -0.62608484E-20  0.70712219E-09 -0.22781234E-07
 -0.20991650E-06  0.61016161E-08  0.24718538E-09 -0.55103896E-08  0.37724602E-08
 -0.93152367E-08  0.34548825E-08  0.16868965E-08  0.22781234E-07  0.20991650E-06
  0.61016161E-08  0.24718538E-09 -0.55103896E-08  0.37724602E-08 -0.93152367E-08
 -0.34548825E-08 -0.16868965E-08
  0.79043810E-17 -0.91707709E-17 -0.84482770E-06  0.12552135E-07  0.19868799E-07
  0.17854357E-07  0.19210879E-08 -0.86023027E-17  0.43884365E-17 -0.49798378E-17
  0.14499022E-16 -0.40552986E-06  0.23001158E-16 -0.97813793E-07 -0.19865244E-16
 -0.84392708E-07 -0.18571026E-16  0.48466570E-16  0.32077386E-08  0.30687015E-08
  0.45129815E-08  0.40903307E-08  0.69066643E-09  0.11249104E-16  0.58221800E-09
  0.63797177E-17  0.82197477E-17 -0.73591221E-17  0.10187195E-08  0.24949866E-08
  0.92950237E-08 -0.16885470E-16 -0.10874828E-16 -0.80267608E-09  0.38511651E-08
 -0.61016161E-08  0.84482770E-06  0.75890332E-09  0.43607330E-08  0.41492455E-07
 -0.21060877E-08  0.11633063E-07 -0.14263109E-07 -0.38511651E-08  0.61016161E-08
  0.84482770E-06  0.75890332E-09  0.43607330E-08  0.41492455E-07 -0.21060877E-08
 -0.11633063E-07  0.14263109E-07
 -0.45809645E-18  0.10231885E-17 -0.75890332E-09  0.29513391E-07  0.23530355E-07
  0.23571169E-07 -0.66999756E-08  0.58256610E-18  0.11947527E-18  0.65115494E-18
 -0.14540078E-17 -0.22287147E-08 -0.18664289E-17  0.43788794E-09  0.16989776E-17
  0.91834606E-10  0.57431063E-18 -0.12601382E-17 -0.14674461E-08  0.83654103E-08
  0.42307150E-08  0.44176905E-08 -0.52538533E-08 -0.96545679E-18 -0.38960275E-09
 -0.33240607E-18 -0.11714438E-17  0.67133029E-19  0.14629564E-08  0.16772112E-08
  0.15324318E-08  0.49834559E-18 -0.96405819E-18 -0.10520261E-08 -0.16909070E-08
 -0.24718538E-09  0.75890332E-09  0.12417485E-06 -0.69580930E-08 -0.92107769E-08
  0.13623721E-07  0.20670079E-07  0.85640810E-08  0.16909070E-08  0.24718538E-09
  0.75890332E-09  0.12417485E-06 -0.69580930E-08 -0.92107769E-08  0.13623721E-07
 -0.20670079E-07 -0.85640810E-08
 -0.29609709E-18  0.78835352E-18 -0.43607330E-08  0.29538075E-07  0.28780782E-07
  0.27877778E-07 -0.64932343E-08  0.95336943E-18 -0.36497006E-18  0.54965557E-18
 -0.23450358E-17 -0.39512283E-08 -0.17810657E-17 -0.73653544E-09  0.16025691E-17
 -0.10653964E-08  0.70741188E-18 -0.76942462E-18 -0.12937610E-09  0.58784179E-08
  0.59454871E-08  0.53828628E-08 -0.44990537E-09 -0.14317694E-17 -0.48247125E-08
 -0.25562643E-18 -0.14555916E-17  0.45965683E-18  0.18617512E-08  0.18708876E-08
  0.19432095E-08  0.69923158E-18 -0.11675582E-17 -0.87235024E-09 -0.35649500E-08
  0.55103896E-08  0.43607330E-08 -0.69580930E-08  0.12783406E-06  0.61751362E-09
  0.14410122E-07 -0.68114458E-08 -0.37970355E-07  0.35649500E-08 -0.55103896E-08
  0.43607330E-08 -0.69580930E-08  0.12783406E-06  0.61751362E-09  0.14410122E-07
  0.68114458E-08  0.37970355E-07
  0.21966454E-18  0.27946764E-18 -0.41492455E-07  0.29188722E-07  0.27253035E-07
  0.34338770E-07 -0.14028035E-08  0.90559199E-18 -0.28859474E-18 -0.27457812E-18
 -0.10626661E-17 -0.11405667E-07  0.68973881E-18 -0.66318164E-08  0.38281194E-18
 -0.66876664E-08 -0.57595593E-18  0.17388865E-17 -0.10672761E-09  0.58139978E-08
  0.49361092E-08  0.79393281E-08  0.41704756E-09 -0.17776103E-17  0.38747218E-09
  0.99049834E-18 -0.16936293E-17  0.10929850E-17  0.17781076E-08  0.22414606E-08
  0.25031347E-08  0.90727985E-18 -0.29617405E-17 -0.27772954E-08  0.28199673E-08
 -0.37724602E-08  0.41492455E-07 -0.92107769E-08  0.61751362E-09  0.18241444E-06
 -0.44137830E-08  0.26598270E-07 -0.43156687E-07 -0.28199673E-08  0.37724602E-08
  0.41492455E-07 -0.92107769E-08  0.61751362E-09  0.18241444E-06 -0.44137830E-08
 -0.26598270E-07  0.43156687E-07
 -0.26081916E-18  0.55605334E-18  0.21060877E-08  0.43141852E-08  0.31504365E-08
  0.30955504E-08 -0.44545069E-08  0.18730298E-18  0.18478322E-20  0.15386837E-18
 -0.39635824E-18  0.65065454E-09 -0.85524721E-18 -0.69277740E-09  0.13516661E-18
 -0.10951118E-08  0.50163455E-18 -0.63651024E-18 -0.84130265E-09  0.72445580E-09
  0.55146124E-09  0.42337061E-09  0.58057524E-09 -0.39970787E-18 -0.63881330E-10
  0.22550011E-19 -0.22225777E-18 -0.84409953E-19  0.21448588E-09  0.36687360E-09
  0.22343765E-09  0.45845915E-18 -0.52461602E-18 -0.87832163E-09 -0.10965120E-07
  0.93152367E-08 -0.21060877E-08  0.13623721E-07  0.14410122E-07 -0.44137830E-08
  0.94817187E-07 -0.20606881E-07  0.98414173E-08  0.10965120E-07 -0.93152367E-08
 -0.21060877E-08  0.13623721E-07  0.14410122E-07 -0.44137830E-08  0.94817187E-07
  0.20606881E-07 -0.98414173E-08
  0.14575915E-19 -0.11621309E-18  0.11633063E-07 -0.86902480E-09 -0.15205633E-08
 -0.34375287E-08 -0.24943326E-08  0.29616168E-18  0.54222655E-19  0.88579065E-19
  0.35004381E-18  0.35343809E-08 -0.20220921E-18  0.44444736E-08 -0.49587712E-18
 -0.53084388E-09  0.54721808E-18 -0.45172461E-18  0.20765271E-09 -0.44747329E-09
 -0.84892011E-10 -0.10262323E-08 -0.53685954E-09 -0.22454415E-18 -0.21594884E-09
 -0.43866949E-18 -0.18051809E-18 -0.49099494E-18 -0.15974806E-09  0.56520958E-09
 -0.41553664E-09  0.43288571E-19  0.82354022E-18 -0.10880364E-08 -0.12966004E-07
  0.34548825E-08 -0.11633063E-07 -0.20670079E-07  0.68114458E-08 -0.26598270E-07
  0.20606881E-07 -0.21884538E-06 -0.26682980E-07  0.12966004E-07 -0.34548825E-08
 -0.11633063E-07 -0.20670079E-07  0.68114458E-08 -0.26598270E-07  0.20606881E-07
  0.21884538E-06  0.26682980E-07
  0.27081287E-18 -0.31681325E-18 -0.14263109E-07  0.29126285E-08  0.38484581E-09
  0.52702531E-08  0.17678037E-10  0.58130819E-18 -0.43499171E-18 -0.57850025E-19
 -0.35143480E-18 -0.44710486E-08  0.48146459E-18 -0.31509810E-08  0.30507185E-18
 -0.43480487E-08 -0.63516016E-18  0.23355751E-17  0.21355859E-12  0.44936257E-09
  0.24010665E-09  0.13027887E-08 -0.77622262E-09 -0.10439252E-17  0.17949631E-09
  0.17885627E-17 -0.12071612E-17  0.13169367E-17  0.87731730E-10  0.43160752E-09
  0.19242246E-11  0.13164821E-17 -0.25457572E-17  0.18951074E-08  0.25077911E-08
  0.16868965E-08  0.14263109E-07 -0.85640810E-08  0.37970355E-07  0.43156687E-07
 -0.98414173E-08 -0.26682980E-07 -0.19504528E-06 -0.25077911E-08 -0.16868965E-08
  0.14263109E-07 -0.85640810E-08  0.37970355E-07  0.43156687E-07 -0.98414173E-08
  0.26682980E-07  0.19504528E-06
]

# Standard CIF keys and data

# ===============
# Reflection data
# ===============

_diffrn_radiation_wavelength        0.31729466

_reflns_d_resolution_high           3.50199051
_reflns_d_resolution_low            0.38457971
_reflns_limit_h_max                 15
_reflns_limit_h_min                 0
_reflns_limit_k_max                 15
_reflns_limit_k_min                 0
_reflns_limit_l_max                 16
_reflns_limit_l_min                 0
_reflns_number_gt                   1080
_reflns_number_total                1080
_reflns_threshold_expression        'F>0'

_reflns_special_details
;
* Specify symmetry and Friedel pair averaging *

. Only reflections which satisfy the threshold expression
  are listed below, and only they are considered observed,
  thus the *_gt, *_all, & *_total data are always the same
;

loop_
    _refln_index_h
    _refln_index_k
    _refln_index_l
    _refln_F_calc
    _refln_F_meas
    _refln_F_sigma
       2       0       0     38.86795165     43.77380000      0.85540000
       4       0       0      5.76177414      5.83030000      0.05160000
       6       0       0     24.87893267     24.56810000      0.07900000
       8       0       0     17.33754836     17.25550000      0.07650000
      10       0       0      4.16918369      4.08590000      0.07830000
      12       0       0      2.09501615      2.41050000      0.10420000
      14       0       0      2.22172386      2.37420000      0.07210000
       0       2       0     30.79140878     33.90860000      0.38030000
       1       2       0     33.19954066     34.81450000      0.28270000
       2       2       0     39.37435893     39.99250000      0.33240000
       3       2       0     14.50281272     14.70840000      0.07060000
       4       2       0     33.20217219     32.66200000      0.11200000
       5       2       0     13.28964666     13.16200000      0.03530000
       6       2       0     17.18351009     17.19270000      0.04300000
       7       2       0      2.14778875      2.22050000      0.04800000
       8       2       0      9.47221103      9.37540000      0.04180000
       9       2       0      3.93711134      3.84750000      0.03360000
      10       2       0      6.64186256      6.61620000      0.04950000
      11       2       0      0.32065625      0.43400000      0.40190000
      12       2       0      3.55345952      3.53160000      0.03880000
      13       2       0      1.20921539      1.21220000      0.09420000
      14       2       0      1.26723924      1.25450000      0.08190000
      15       2       0      0.11913009      0.49210000      0.38120000
       0       4       0     10.76679508     11.10590000      0.04830000
       1       4       0      9.92055017     10.00800000      0.02240000
       2       4       0     29.78226851     29.33550000      0.09730000
       3       4       0      5.96297076      6.27760000      0.06550000
       4       4       0     31.24363795     30.77950000      0.08010000
       5       4       0      4.74987057      4.71220000      0.03070000
       6       4       0     11.74032575     11.70260000      0.05760000
       7       4       0      0.86886927      1.11020000      0.11310000
       8       4       0      6.37591113      6.27390000      0.03640000
       9       4       0      2.57788849      2.63510000      0.04620000
      10       4       0      6.85182257      6.79910000      0.04480000
      11       4       0      0.62671451      0.63950000      0.23210000
      12       4       0      3.18989668      3.14920000      0.04230000
      13       4       0      0.42844728      0.58230000      0.43410000
      14       4       0      0.70289597      0.80150000      0.15670000
      15       4       0      0.07736619      0.25390000      0.30250000
       0       6       0     29.28623653     28.91400000      0.08530000
       1       6       0      5.01489918      5.16660000      0.05890000
       2       6       0     17.82051561     17.92260000      0.04100000
       3       6       0      2.81203074      2.90330000      0.11800000
       4       6       0      9.15308650      9.28700000      0.03850000
       5       6       0      2.84931593      2.90900000      0.04060000
       6       6       0     12.31136383     12.03370000      0.04900000
       7       6       0      0.74941784      0.61360000      0.21710000
       8       6       0      9.34103195      9.35140000      0.04640000
       9       6       0      2.13085624      2.33390000      0.06200000
      10       6       0      3.00984928      2.96610000      0.04490000
      11       6       0      0.02329602      0.47700000      0.39850000
      12       6       0      1.27594909      1.24090000      0.09200000
      13       6       0      0.18372282      0.60900000      0.39380000
      14       6       0      1.24609808      1.03690000      0.11010000
       0       8       0     14.33986670     14.34220000      0.07800000
       1       8       0      3.80791114      3.79680000      0.03710000
       2       8       0     11.29646372     11.28590000      0.03580000
       3       8       0      2.06772797      1.95220000      0.05460000
       4       8       0      8.69374857      8.52060000      0.04330000
       5       8       0      3.89176505      3.87600000      0.03340000
       6       8       0      8.01932470      8.02720000      0.04690000
       7       8       0      1.50653324      1.52650000      0.06980000
       8       8       0      4.67846454      4.64870000      0.04010000
       9       8       0      1.06515957      1.07580000      0.13800000
      10       8       0      1.98870587      2.05230000      0.05940000
      11       8       0      0.23063580      0.58170000      0.43710000
      12       8       0      1.46120986      1.41960000      0.07240000
      13       8       0      0.67952430      0.75880000      0.14550000
       0      10       0      4.26574223      4.15580000      0.06050000
       1      10       0      0.08433076      0.27440000      0.31560000
       2      10       0      7.11748645      7.14230000      0.04160000
       3      10       0      0.70282361      0.55380000      0.40520000
       4      10       0      7.75187472      7.70010000      0.04750000
       5      10       0      0.67468871      0.36670000      0.43410000
       6      10       0      3.31718517      3.30320000      0.04030000
       7      10       0      0.01436851      0.44630000      0.40190000
       8      10       0      1.67196970      1.57800000      0.07480000
       9      10       0      0.33334326      0.72570000      0.19930000
      10      10       0      2.09659315      2.08950000      0.05460000
      11      10       0      0.54022172      0.55860000      0.20440000
      12      10       0      1.13871791      1.09720000      0.05900000
       0      12       0      4.10639550      4.04940000      0.06110000
       1      12       0      1.07948692      1.13900000      0.10360000
       2      12       0      3.54488926      3.54930000      0.03220000
       3      12       0      0.80903379      1.03750000      0.13940000
       4      12       0      2.49888174      2.50960000      0.05010000
       5      12       0      0.57410184      0.52900000      0.44330000
       6      12       0      2.03994499      2.12590000      0.05910000
       7      12       0      0.21565746      0.34350000      0.41830000
       8      12       0      1.76393746      1.77630000      0.05570000
       9      12       0      0.72617701      0.77980000      0.14640000
       0      14       0      2.22911717      2.39180000      0.07000000
       1      14       0      0.18169698      0.33620000      0.40850000
       2      14       0      1.55796972      1.54780000      0.05660000
       3      14       0      0.09300870      0.47500000      0.24840000
       4      14       0      1.06911478      1.03330000      0.08470000
       5      14       0      0.37475444      0.52380000      0.37770000
       6      14       0      1.29284355      1.31540000      0.06080000
       1       1       1     64.61857684     69.56470000      2.24580000
       2       1       1     34.84569959     36.94540000      0.26360000
       3       1       1     25.45262998     25.70990000      0.11040000
       4       1       1      5.03476850      5.03410000      0.02120000
       5       1       1     20.94304069     20.74250000      0.03910000
       6       1       1      8.51168906      8.57110000      0.02980000
       7       1       1     18.79727210     18.62930000      0.03370000
       8       1       1      2.63071334      2.59210000      0.07640000
       9       1       1      8.75993484      8.76090000      0.03300000
      10       1       1      2.01214581      1.98030000      0.04420000
      11       1       1      3.63661299      3.63220000      0.02620000
      12       1       1      1.11210767      1.10650000      0.08600000
      13       1       1      2.31755415      2.31790000      0.03610000
      14       1       1      0.40360105      0.50700000      0.35290000
      15       1       1      1.19578392      1.17290000      0.05520000
       1       3       1     24.48269786     24.74060000      0.07950000
       2       3       1      8.35550587      8.39340000      0.02860000
       3       3       1     41.59860584     40.55790000      0.14720000
       4       3       1      2.15469395      2.19350000      0.02600000
       5       3       1     23.67715322     23.82120000      0.03830000
       6       3       1      2.56140735      2.58820000      0.03680000
       7       3       1      9.56298331      9.68380000      0.03220000
       8       3       1      1.08594733      1.14820000      0.07290000
       9       3       1      7.37588605      7.36380000      0.03310000
      10       3       1      0.34599657      0.38930000      0.23460000
      11       3       1      5.72509790      5.73160000      0.02790000
      12       3       1      0.68604424      0.57010000      0.29370000
      13       3       1      1.83413017      1.87960000      0.04460000
      14       3       1      0.09267980      0.52860000      0.31680000
      15       3       1      0.64209237      0.72060000      0.19540000
       1       5       1     24.11702916     23.93410000      0.03550000
       2       5       1     13.52265725     13.61970000      0.02710000
       3       5       1     20.27310446     20.40200000      0.03680000
       4       5       1      2.54088603      2.69150000      0.02690000
       5       5       1     14.75168839     14.68980000      0.03080000
       6       5       1      5.25326591      5.26720000      0.02380000
       7       5       1     10.27468139     10.23670000      0.03010000
       8       5       1      2.76341306      2.74800000      0.03050000
       9       5       1      6.52068385      6.59590000      0.03060000
      10       5       1      2.04382109      2.05250000      0.04270000
      11       5       1      3.14706635      3.10640000      0.03060000
      12       5       1      0.76410667      0.67450000      0.17490000
      13       5       1      1.40648515      1.26470000      0.06020000
      14       5       1      0.23883027      0.48750000      0.21080000
       1       7       1     19.21321893     19.13530000      0.03280000
       2       7       1      2.10327860      2.08120000      0.03110000
       3       7       1     10.62128443     10.70870000      0.03520000
       4       7       1      0.73412648      0.90090000      0.08450000
       5       7       1      9.49488542      9.54460000      0.03510000
       6       7       1      2.15431971      2.09210000      0.03640000
       7       7       1      9.50776691      9.47320000      0.03290000
       8       7       1      0.61886918      0.48990000      0.33410000
       9       7       1      4.19252548      4.15040000      0.02480000
      10       7       1      0.46016740      0.66330000      0.25250000
      11       7       1      1.70709747      1.77820000      0.04500000
      12       7       1      0.31191801      0.58240000      0.30060000
      13       7       1      1.31435180      1.33240000      0.04860000
      14       7       1      0.35044230      0.36380000      0.24070000
       1       9       1      8.16869976      8.22860000      0.03190000
       2       9       1      2.73096953      2.70690000      0.03090000
       3       9       1      9.51633119      9.47770000      0.03370000
       4       9       1      1.48276405      1.52600000      0.05240000
       5       9       1      7.16846954      7.21330000      0.03220000
       6       9       1      2.00014603      1.89660000      0.04420000
       7       9       1      3.59354160      3.61830000      0.02630000
       8       9       1      0.69843272      0.68650000      0.18300000
       9       9       1      2.38000069      2.31830000      0.03940000
      10       9       1      0.36021056      0.48590000      0.36680000
      11       9       1      1.86897196      1.82940000      0.03950000
      12       9       1      0.62512385      0.70970000      0.13410000
       1      11       1      4.63498173      4.64950000      0.02210000
       2      11       1      1.70243073      1.68900000      0.04960000
       3      11       1      5.14693938      5.17230000      0.02350000
       4      11       1      0.21042232      0.39450000      0.34020000
       5      11       1      3.48744119      3.48570000      0.02730000
       6      11       1      0.74700417      0.71010000      0.17150000
       7      11       1      2.07980826      2.06870000      0.04050000
       8      11       1      0.55985692      0.64060000      0.19010000
       9      11       1      1.72295252      1.75460000      0.04120000
      10      11       1      0.64435095      0.57780000      0.13830000
      11      11       1      1.06790179      0.97720000      0.04670000
       1      13       1      2.92585328      2.93590000      0.02720000
       2      13       1      0.33825887      0.47670000      0.34410000
       3      13       1      1.81552678      1.86240000      0.03880000
       4      13       1      0.18258784      0.41170000      0.33220000
       5      13       1      1.58934631      1.63500000      0.04660000
       6      13       1      0.25382136      0.45840000      0.18270000
       7      13       1      1.62781627      1.65150000      0.03690000
       8      13       1      0.41165700      0.31660000      0.25420000
       1      15       1      1.13156945      1.17700000      0.04850000
       2      15       1      0.28797874      0.35470000      0.22540000
       3      15       1      1.04227529      1.00370000      0.04170000
       0       0       2     68.74279500     64.74170000      4.25670000
       2       0       2     37.56424146     38.65470000      0.26570000
       4       0       2     32.76262619     32.11610000      0.23910000
       6       0       2     19.52716193     19.44400000      0.07200000
       8       0       2     12.33032553     12.24170000      0.04450000
      10       0       2      6.27963194      6.29310000      0.05200000
      12       0       2      3.30647975      3.30620000      0.04140000
      14       0       2      1.63861728      1.61290000      0.06610000
       0       2       2     38.15928413     38.76170000      0.41710000
       1       2       2     25.52471241     25.76010000      0.16530000
       2       2       2     33.67533319     33.35820000      0.14910000
       3       2       2     12.20184010     12.34560000      0.02620000
       4       2       2     25.99732027     25.93180000      0.05340000
       5       2       2     11.11488528     11.19780000      0.04490000
       6       2       2     16.85008981     16.89920000      0.03810000
       7       2       2      1.57946990      1.73280000      0.06370000
       8       2       2     10.54527695     10.46170000      0.03670000
       9       2       2      3.90372968      3.89780000      0.02640000
      10       2       2      5.96934613      5.91360000      0.03670000
      11       2       2      0.37256693      0.58470000      0.21480000
      12       2       2      2.96555341      2.97920000      0.03190000
      13       2       2      1.03606589      0.81440000      0.14020000
      14       2       2      1.31743241      1.31560000      0.05500000
      15       2       2      0.16094262      0.35640000      0.31980000
       0       4       2     31.53496551     31.31350000      0.11540000
       1       4       2      8.06285689      8.17450000      0.02750000
       2       4       2     25.36207997     25.18680000      0.04760000
       3       4       2      4.60728915      4.65180000      0.02130000
       4       4       2     21.64054021     21.71500000      0.04700000
       5       4       2      4.92040528      4.91790000      0.02550000
       6       4       2     14.13281583     14.12940000      0.03640000
       7       4       2      1.61093974      1.64970000      0.04150000
       8       4       2      9.30950107      9.38120000      0.04060000
       9       4       2      2.06264004      2.15760000      0.03880000
      10       4       2      5.23451557      5.28400000      0.02740000
      11       4       2      0.37200722      0.56570000      0.22200000
      12       4       2      2.43668291      2.42130000      0.03620000
      13       4       2      0.57645556      0.57900000      0.21690000
      14       4       2      1.23853642      1.19320000      0.05740000
      15       4       2      0.12945372      0.36660000      0.23880000
       0       6       2     21.29303391     21.19780000      0.04810000
       1       6       2      4.24403925      4.41150000      0.02330000
       2       6       2     17.42515114     17.50600000      0.03940000
       3       6       2      1.93255505      1.92140000      0.03370000
       4       6       2     14.94330159     15.00610000      0.03880000
       5       6       2      3.51952356      3.48190000      0.02510000
       6       6       2     10.68459367     10.33880000      0.05010000
       7       6       2      0.92893116      1.05650000      0.08650000
       8       6       2      6.97480377      7.07640000      0.03230000
       9       6       2      1.53766676      1.55350000      0.05150000
      10       6       2      3.50698273      3.58120000      0.02760000
      11       6       2      0.44109357      0.47990000      0.34020000
      12       6       2      1.99799031      1.97360000      0.04240000
      13       6       2      0.45542727      0.39360000      0.23210000
      14       6       2      1.00993194      0.93150000      0.06950000
       0       8       2     11.54688335     11.59500000      0.03410000
       1       8       2      3.68287327      3.64610000      0.02610000
       2       8       2     11.22541550     11.19640000      0.03740000
       3       8       2      2.45798849      2.34190000      0.02760000
       4       8       2      9.61227902      9.58540000      0.02980000
       5       8       2      3.12061716      3.09400000      0.02830000
       6       8       2      6.60855672      6.78510000      0.03370000
       7       8       2      0.95716885      0.87130000      0.11800000
       8       8       2      4.01243639      3.94830000      0.02600000
       9       8       2      1.49356669      1.51890000      0.05760000
      10       8       2      2.57407511      2.58160000      0.03390000
      11       8       2      0.43213700      0.57990000      0.32160000
      12       8       2      1.39295088      1.39240000      0.04920000
      13       8       2      0.49977090      0.47980000      0.14280000
       0      10       2      7.20078108      7.23590000      0.05050000
       1      10       2      0.42271902      0.78040000      0.16100000
       2      10       2      6.42495055      6.41380000      0.03260000
       3      10       2      0.62953187      0.67230000      0.24350000
       4      10       2      5.65317634      5.57770000      0.02660000
       5      10       2      0.28921772      0.32500000      0.33620000
       6      10       2      3.77243674      3.80950000      0.02600000
       7      10       2      0.58687945      0.57400000      0.27850000
       8      10       2      2.74259273      2.72470000      0.03210000
       9      10       2      0.51198482      0.59650000      0.31270000
      10      10       2      1.66037636      1.65240000      0.04380000
      11      10       2      0.37203720      0.34480000      0.31980000
       0      12       2      3.71200364      3.77090000      0.03430000
       1      12       2      0.93235492      0.98720000      0.07330000
       2      12       2      3.24485337      3.29370000      0.02890000
       3      12       2      0.55856918      0.42280000      0.33620000
       4      12       2      2.61954171      2.64170000      0.02880000
       5      12       2      0.89899085      0.92310000      0.07830000
       6      12       2      2.14903663      2.13920000      0.03740000
       7      12       2      0.39680088      0.44930000      0.34800000
       8      12       2      1.50251453      1.57220000      0.04360000
       9      12       2      0.50250296      0.47270000      0.28990000
       0      14       2      1.67585750      1.65360000      0.05060000
       1      14       2      0.22175192      0.51210000      0.20070000
       2      14       2      1.58360073      1.57420000      0.04350000
       3      14       2      0.24958162      0.44270000      0.33220000
       4      14       2      1.44763685      1.48250000      0.03850000
       5      14       2      0.30784175      0.54170000      0.16860000
       6      14       2      1.06712315      1.03400000      0.04420000
       1       1       3     27.61527422     27.14930000      0.12070000
       2       1       3     21.25656593     20.78210000      0.06190000
       3       1       3     35.36462136     34.51100000      0.12830000
       4       1       3      3.41639237      3.49950000      0.02280000
       5       1       3     22.27890076     22.40500000      0.04490000
       6       1       3      6.46859220      6.48650000      0.02880000
       7       1       3     11.06560983     11.09540000      0.02950000
       8       1       3      2.41895900      2.40360000      0.03640000
       9       1       3      7.45738618      7.48870000      0.03510000
      10       1       3      1.89061833      1.91220000      0.04580000
      11       1       3      4.96904855      4.96270000      0.03300000
      12       1       3      0.88355285      0.86950000      0.12260000
      13       1       3      1.90860315      1.95520000      0.04670000
      14       1       3      0.30536576      0.45100000      0.34410000
      15       1       3      0.71662738      0.55510000      0.25370000
       1       3       3     37.28482130     36.50320000      0.16010000
       2       3       3      5.98868483      6.03030000      0.02340000
       3       3       3     18.65856949     19.05100000      0.05630000
       4       3       3      1.05441125      1.23280000      0.04010000
       5       3       3     15.07900112     15.37530000      0.03290000
       6       3       3      1.34765896      1.70920000      0.05570000
       7       3       3     15.56549482     15.68580000      0.03860000
       8       3       3      1.53017509      1.47930000      0.05150000
       9       3       3      7.41915298      7.23700000      0.05150000
      10       3       3      0.68492777      0.70110000      0.22260000
      11       3       3      2.82162483      2.86150000      0.03190000
      12       3       3      0.36153939      0.80850000      0.16480000
      13       3       3      1.71617524      1.69620000      0.04940000
      14       3       3      0.07444307      0.49330000      0.33180000
      15       3       3      1.10334142      1.09170000      0.04530000
       1       5       3     21.04843290     21.08620000      0.03610000
       2       5       3      9.90222028      9.90410000      0.02270000
       3       5       3     17.17732528     17.21480000      0.03030000
       4       5       3      2.90893375      2.91420000      0.02220000
       5       5       3     13.91678672     13.86490000      0.03790000
       6       5       3      5.37193896      5.42010000      0.02740000
       7       5       3      9.53680714      9.50840000      0.03920000
       8       5       3      1.71601919      1.73970000      0.04590000
       9       5       3      5.02506993      5.18090000      0.03010000
      10       5       3      1.23718921      1.28900000      0.06500000
      11       5       3      2.73544609      2.74970000      0.03460000
      12       5       3      0.98850870      0.95360000      0.11180000
      13       5       3      1.60228929      1.41070000      0.05400000
      14       5       3      0.40225485      0.40370000      0.31980000
       1       7       3     11.48013689     11.53360000      0.02870000
       2       7       3      2.32727734      2.39140000      0.02860000
       3       7       3     15.48304504     15.43400000      0.03350000
       4       7       3      0.94953495      0.78840000      0.13520000
       5       7       3     10.47487962     10.41030000      0.03550000
       6       7       3      1.27706712      1.35030000      0.05640000
       7       7       3      4.83583536      4.87070000      0.02340000
       8       7       3      0.30739623      0.35110000      0.33620000
       9       7       3      3.55881181      3.57490000      0.03090000
      10       7       3      0.90709614      0.72880000      0.14620000
      11       7       3      2.86104339      2.85580000      0.03200000
      12       7       3      0.36596263      0.53420000      0.32060000
      13       7       3      1.03620354      1.01580000      0.06750000
       1       9       3      9.12094938      9.17450000      0.03110000
       2       9       3      2.80838481      2.84990000      0.03210000
       3       9       3      6.84376182      6.73580000      0.04290000
       4       9       3      0.72949311      0.91980000      0.09100000
       5       9       3      5.07037746      5.15620000      0.02140000
       6       9       3      1.01092045      1.06730000      0.19260000
       7       9       3      4.31694857      4.35840000      0.02620000
       8       9       3      1.21278676      1.22450000      0.07460000
       9       9       3      2.76866375      2.77960000      0.03420000
      10       9       3      0.73323584      0.52050000      0.35100000
      11       9       3      1.24605631      1.22540000      0.05590000
      12       9       3      0.28712758      0.58290000      0.16330000
       1      11       3      5.07278166      5.09800000      0.02690000
       2      11       3      1.25749730      1.26400000      0.06320000
       3      11       3      3.27054556      3.28980000      0.02890000
       4      11       3      0.39676363      0.53140000      0.22920000
       5      11       3      2.97628051      2.98420000      0.02680000
       6      11       3      1.15212564      1.15820000      0.06570000
       7      11       3      2.74695472      2.70300000      0.03240000
       8      11       3      0.39492158      0.34490000      0.35190000
       9      11       3      1.36084976      1.41190000      0.04850000
      10      11       3      0.27989654      0.36830000      0.24800000
       1      13       3      1.95959985      1.96470000      0.03680000
       2      13       3      0.16362525      0.35900000      0.36320000
       3      13       3      2.38069251      2.38510000      0.03350000
       4      13       3      0.39729004      0.48970000      0.23320000
       5      13       3      1.85015116      1.78190000      0.03630000
       6      13       3      0.38190615      0.54210000      0.18250000
       7      13       3      0.99650800      0.99400000      0.05740000
       8      13       3      0.12951063      0.23750000      0.24330000
       1      15       3      1.03241919      1.04690000      0.04000000
       2      15       3      0.35541348      0.32970000      0.24330000
       0       0       4      7.59283944      7.66840000      0.04120000
       2       0       4     29.73104014     29.00090000      0.15960000
       4       0       4     33.47996544     33.04720000      0.07450000
       6       0       4     11.84779115     11.97280000      0.05690000
       8       0       4      5.57847661      5.45190000      0.09980000
      10       0       4      6.89284195      6.87780000      0.04650000
      12       0       4      3.48261031      3.45200000      0.04080000
      14       0       4      0.69175116      0.73210000      0.17160000
       0       2       4     32.85941988     32.19640000      0.16430000
       1       2       4     13.29251443     13.32310000      0.02600000
       2       2       4     24.55022488     24.42970000      0.05160000
       3       2       4      7.15650021      7.26570000      0.02410000
       4       2       4     16.69679398     16.83910000      0.03370000
       5       2       4      7.43187179      7.50090000      0.02990000
       6       2       4     14.77648096     14.93110000      0.04380000
       7       2       4      1.04014578      1.20830000      0.05990000
       8       2       4     10.07158794     10.11520000      0.03730000
       9       2       4      3.32899382      3.32960000      0.02970000
      10       2       4      4.56730264      4.54180000      0.02430000
      11       2       4      0.29066064      0.39020000      0.34410000
      12       2       4      2.09563491      2.09020000      0.04190000
      13       2       4      0.74460927      0.75530000      0.13100000
      14       2       4      1.27207216      1.27050000      0.05390000
      15       2       4      0.19377617      0.37580000      0.24310000
       0       4       4     31.57142409     30.98700000      0.14040000
       1       4       4      5.10855052      5.16800000      0.02430000
       2       4       4     18.79372402     18.80240000      0.03160000
       3       4       4      2.86575506      2.99960000      0.13960000
       4       4       4     10.35589920     10.26480000      0.03230000
       5       4       4      4.20609627      4.27940000      0.02310000
       6       4       4     13.95980884     14.09930000      0.04240000
       7       4       4      1.72806147      1.68520000      0.04070000
       8       4       4      9.47465619      9.45880000      0.03620000
       9       4       4      1.18103432      1.23480000      0.08940000
      10       4       4      2.82778538      2.84740000      0.03210000
      11       4       4      0.13160386      0.46740000      0.34410000
      12       4       4      1.64816713      1.64460000      0.05550000
      13       4       4      0.62413526      0.78470000      0.15040000
      14       4       4      1.40066086      1.38100000      0.04690000
       0       6       4      9.93041303     10.02970000      0.03910000
       1       6       4      3.02646143      3.06700000      0.02610000
       2       6       4     15.21325318     15.27860000      0.02990000
       3       6       4      1.11659584      1.35690000      0.05610000
       4       6       4     16.16148870     16.13730000      0.04480000
       5       6       4      3.34101325      3.26930000      0.02330000
       6       6       4      7.59796929      7.57920000      0.03570000
       7       6       4      0.69437544      0.95310000      0.11580000
       8       6       4      3.50945979      3.58490000      0.03080000
       9       6       4      0.78165430      0.89300000      0.14070000
      10       6       4      3.68310567      3.75400000      0.02840000
      11       6       4      0.62694319      0.62960000      0.16320000
      12       6       4      2.16565004      2.14410000      0.03730000
      13       6       4      0.50315342      0.50680000      0.30040000
      14       6       4      0.57999815      0.47370000      0.14470000
       0       8       4      8.73406877      8.46530000      0.04630000
       1       8       4      3.06784139      3.11680000      0.03420000
       2       8       4      9.78781554      9.69780000      0.02750000
       3       8       4      2.36467243      2.27590000      0.03510000
       4       8       4      8.48829538      8.30500000      0.03480000
       5       8       4      1.86666952      1.82940000      0.03950000
       6       8       4      4.71072880      4.70150000      0.02270000
       7       8       4      0.25052575      0.43160000      0.22930000
       8       8       4      3.43281104      3.45440000      0.02860000
       9       8       4      1.61921937      1.62920000      0.05140000
      10       8       4      2.58876103      2.56590000      0.03410000
      11       8       4      0.41794057      0.44680000      0.25560000
      12       8       4      1.07245634      0.99640000      0.06110000
       0      10       4      7.87141339      7.88290000      0.04830000
       1      10       4      0.48823511      0.36500000      0.34800000
       2      10       4      5.03423955      5.01820000      0.02350000
       3      10       4      0.31363547      0.38000000      0.34020000
       4      10       4      2.73219706      2.73980000      0.03330000
       5      10       4      0.45920068      0.63040000      0.25960000
       6      10       4      3.83809214      3.79530000      0.02310000
       7      10       4      0.79187136      0.78200000      0.11680000
       8      10       4      2.95579902      2.90460000      0.03150000
       9      10       4      0.44586300      0.40210000      0.35190000
      10      10       4      0.93378313      0.85220000      0.09830000
      11      10       4      0.01028402      0.19870000      0.20750000
       0      12       4      2.66812869      2.59070000      0.05000000
       1      12       4      0.69693635      0.43410000      0.26310000
       2      12       4      2.72747115      2.67910000      0.02840000
       3      12       4      0.25986397      0.51740000      0.37050000
       4      12       4      2.68112334      2.68150000      0.03550000
       5      12       4      0.98265798      0.93690000      0.10560000
       6      12       4      1.90525079      1.86710000      0.03670000
       7      12       4      0.38031916      0.42960000      0.31980000
       8      12       4      0.99029421      1.00740000      0.06800000
       9      12       4      0.14620176      0.26460000      0.24880000
       0      14       4      1.08161033      1.04530000      0.10920000
       1      14       4      0.25600302      0.32080000      0.30690000
       2      14       4      1.46526405      1.45940000      0.03910000
       3      14       4      0.31928650      0.58870000      0.12930000
       4      14       4      1.45477812      1.45790000      0.04180000
       5      14       4      0.11837662      0.35820000      0.19130000
       1       1       5     19.82526720     19.94970000      0.03760000
       2       1       5     10.23087740     10.24960000      0.02860000
       3       1       5     25.13747336     24.87060000      0.10870000
       4       1       5      2.10357867      2.10570000      0.02710000
       5       1       5     16.62522642     16.51690000      0.03300000
       6       1       5      4.32456819      4.41060000      0.02930000
       7       1       5      8.37915194      8.50680000      0.03800000
       8       1       5      1.80306015      1.84640000      0.04330000
       9       1       5      6.17590330      6.26270000      0.03040000
      10       1       5      1.42197840      1.39440000      0.06010000
      11       1       5      3.96625467      3.93880000      0.03000000
      12       1       5      0.64563933      0.57370000      0.27870000
      13       1       5      1.41814832      1.47260000      0.05170000
      14       1       5      0.24527333      0.42330000      0.32810000
       1       3       5     26.44187240     26.18610000      0.05060000
       2       3       5      3.10198782      3.06130000      0.02360000
       3       3       5     12.75425689     12.89920000      0.02740000
       4       3       5      0.92426168      1.02310000      0.04840000
       5       3       5     12.19353398     12.28790000      0.02910000
       6       3       5      1.23375585      1.29300000      0.04420000
       7       3       5     12.48158577     12.57060000      0.04690000
       8       3       5      1.18671758      1.25790000      0.06050000
       9       3       5      5.48841258      5.45830000      0.02580000
      10       3       5      0.44945749      0.47010000      0.34410000
      11       3       5      1.94587102      1.89260000      0.04630000
      12       3       5      0.28463310      0.32510000      0.30690000
      13       3       5      1.57644190      1.51460000      0.04770000
      14       3       5      0.14460568      0.39160000      0.31980000
       1       5       5     15.30597829     15.29080000      0.03060000
       2       5       5      6.45877049      6.55030000      0.10810000
       3       5       5     14.44854556     14.43360000      0.02980000
       4       5       5      2.20254433      2.31980000      0.03280000
       5       5       5     11.29660344     11.37410000      0.02910000
       6       5       5      3.95538734      3.92470000      0.02130000
       7       5       5      6.87368515      6.87930000      0.03210000
       8       5       5      1.04992666      1.10860000      0.07210000
       9       5       5      3.86179578      3.73970000      0.02950000
      10       5       5      0.96256060      0.79010000      0.19270000
      11       5       5      2.48096076      2.52380000      0.03770000
      12       5       5      0.83475556      0.91670000      0.13290000
      13       5       5      1.30987502      1.38190000      0.04960000
      14       5       5      0.30054310      0.27120000      0.25420000
       1       7       5      9.16564311      9.24280000      0.03380000
       2       7       5      2.01827944      2.09050000      0.03640000
       3       7       5     12.10370143     12.04280000      0.02940000
       4       7       5      0.54713542      0.75400000      0.11110000
       5       7       5      7.84976053      7.69020000      0.03420000
       6       7       5      0.58504788      0.59870000      0.13350000
       7       7       5      3.67155142      3.57400000      0.02880000
       8       7       5      0.68696000      0.61850000      0.17230000
       9       7       5      3.20766569      3.25120000      0.03040000
      10       7       5      0.84810005      0.62090000      0.22070000
      11       7       5      2.28577256      2.24590000      0.03560000
      12       7       5      0.18393884      0.36470000      0.33620000
      13       7       5      0.69566681      0.63310000      0.07820000
       1       9       5      7.62796716      7.61670000      0.03500000
       2       9       5      2.12970809      2.11860000      0.04130000
       3       9       5      4.66249693      4.69140000      0.02030000
       4       9       5      0.43011982      0.38850000      0.34020000
       5       9       5      3.91171270      3.78730000      0.03020000
       6       9       5      0.95468496      0.92420000      0.09880000
       7       9       5      3.87251151      3.82470000      0.02290000
       8       9       5      1.02863120      0.99870000      0.08000000
       9       9       5      2.17907902      2.24760000      0.03730000
      10       9       5      0.51008625      0.64260000      0.14220000
      11       9       5      0.79700081      0.60260000      0.13270000
       1      11       5      3.80435486      3.79980000      0.02600000
       2      11       5      0.92074796      0.84470000      0.13520000
       3      11       5      2.93912847      2.92620000      0.02860000
       4      11       5      0.49976489      0.41600000      0.33620000
       5      11       5      2.67108926      2.65620000      0.04300000
       6      11       5      0.99005394      0.87720000      0.09980000
       7      11       5      2.07080130      2.06680000      0.03320000
       8      11       5      0.07978974      0.31000000      0.34020000
       9      11       5      0.98118077      0.93540000      0.06510000
       1      13       5      1.55514229      1.52450000      0.04740000
       2      13       5      0.32248776      0.47410000      0.32110000
       3      13       5      2.04599679      2.05230000      0.03340000
       4      13       5      0.32026536      0.50840000      0.31450000
       5      13       5      1.46918206      1.46470000      0.04160000
       6      13       5      0.20132448      0.36900000      0.31130000
       7      13       5      0.71228306      0.73790000      0.05670000
       0       0       6     21.00369909     20.97470000      0.07460000
       2       0       6     19.73171461     19.56070000      0.04900000
       4       0       6     17.71408475     17.54800000      0.04640000
       6       0       6     10.34722999     10.13120000      0.05520000
       8       0       6      7.25451883      7.30790000      0.04580000
      10       0       6      4.48239980      4.54410000      0.07040000
      12       0       6      2.00281191      2.02780000      0.06010000
      14       0       6      0.90583948      0.70500000      0.29700000
       0       2       6     20.52652951     20.56870000      0.04610000
       1       2       6      6.32671224      6.40760000      0.02850000
       2       2       6     17.63290869     17.65680000      0.03260000
       3       2       6      3.59244841      3.52180000      0.02810000
       4       2       6     13.96241629     13.78930000      0.05190000
       5       2       6      4.73159754      4.75130000      0.02240000
       6       2       6     10.79072403     10.61380000      0.02940000
       7       2       6      1.11379133      1.05640000      0.07930000
       8       2       6      6.82937067      6.93580000      0.03620000
       9       2       6      2.15124871      2.28630000      0.13650000
      10       2       6      3.43703518      3.50990000      0.03140000
      11       2       6      0.16024145      0.47110000      0.33620000
      12       2       6      1.85518734      1.80920000      0.04630000
      13       2       6      0.58889112      0.69510000      0.24640000
      14       2       6      0.97666916      1.04110000      0.07680000
       0       4       6     16.86399161     16.88710000      0.04400000
       1       4       6      3.02903045      3.08950000      0.02340000
       2       4       6     14.52648175     14.49590000      0.02910000
       3       4       6      2.06047800      2.15120000      0.03540000
       4       4       6     12.71556216     12.74150000      0.03230000
       5       4       6      2.56227770      2.60300000      0.02780000
       6       4       6      9.17710757      9.36370000      0.03050000
       7       4       6      0.93178605      0.98880000      0.10390000
       8       4       6      5.43806263      5.40610000      0.02610000
       9       4       6      1.00515851      1.08900000      0.07690000
      10       4       6      3.00132015      2.98320000      0.03320000
      11       4       6      0.41091676      0.39110000      0.33620000
      12       4       6      1.78846513      1.80680000      0.04210000
      13       4       6      0.40861686      0.55860000      0.14990000
      14       4       6      0.87438364      0.79260000      0.05760000
       0       6       6     10.92601210     10.84050000      0.04490000
       1       6       6      2.17657358      2.07620000      0.04220000
       2       6       6     11.08433261     10.83010000      0.04530000
       3       6       6      1.33912824      1.83260000      0.08100000
       4       6       6      9.97022129      9.92290000      0.03610000
       5       6       6      1.89213695      1.86360000      0.03880000
       6       6       6      5.75846130      5.86300000      0.08120000
       7       6       6      0.09704691      0.37030000      0.31980000
       8       6       6      4.02811742      3.97800000      0.03350000
       9       6       6      1.04036006      1.27910000      0.08630000
      10       6       6      2.72833719      2.72570000      0.03350000
      11       6       6      0.47201945      0.36380000      0.36320000
      12       6       6      1.32423467      1.43810000      0.05030000
      13       6       6      0.24031685      0.35100000      0.25940000
       0       8       6      8.19559738      8.20870000      0.04780000
       1       8       6      2.03084415      2.12010000      0.04130000
       2       8       6      6.89709426      6.98900000      0.03210000
       3       8       6      1.41678042      1.41580000      0.05910000
       4       8       6      5.09853137      5.00440000      0.02430000
       5       8       6      1.61745142      1.65400000      0.05060000
       6       8       6      4.28739768      4.09770000      0.02510000
       7       8       6      0.80950648      0.73300000      0.14020000
       8       8       6      3.10485925      3.19290000      0.02740000
       9       8       6      1.02399431      1.04680000      0.08000000
      10       8       6      1.58200750      1.65170000      0.04610000
      11       8       6      0.11137245      0.49400000      0.30820000
      12       8       6      0.74436510      0.51960000      0.12450000
       0      10       6      4.69050225      4.69190000      0.03330000
       1      10       6      0.36991493      0.55810000      0.30010000
       2      10       6      3.89814091      3.91260000      0.02530000
       3      10       6      0.17946499      0.50430000      0.33210000
       4      10       6      3.52884744      3.53060000      0.02910000
       5      10       6      0.76382083      0.70150000      0.17900000
       6      10       6      2.77675907      2.79370000      0.03270000
       7      10       6      0.54150147      0.54790000      0.22230000
       8      10       6      1.71413438      1.69500000      0.04040000
       9      10       6      0.06313992      0.40160000      0.32810000
      10      10       6      0.93246114      0.88700000      0.06010000
       0      12       6      1.95098439      2.05280000      0.06120000
       1      12       6      0.57627543      0.79270000      0.12960000
       2      12       6      2.23087889      2.24390000      0.03730000
       3      12       6      0.43231518      0.63310000      0.18640000
       4      12       6      2.11627780      2.12740000      0.03220000
       5      12       6      0.57962097      0.64870000      0.17020000
       6      12       6      1.26921392      1.41750000      0.04830000
       7      12       6      0.11090599      0.30380000      0.25940000
       8      12       6      0.84251460      0.79440000      0.04790000
       0      14       6      1.28114568      1.22700000      0.06200000
       1      14       6      0.20866914      0.44470000      0.28240000
       2      14       6      1.10449677      1.03370000      0.04420000
       3      14       6      0.21404518      0.38370000      0.14880000
       1       1       7     17.82656281     17.65770000      0.03340000
       2       1       7      4.94907701      4.93180000      0.02390000
       3       1       7     12.66667622     12.65770000      0.03520000
       4       1       7      1.27244847      1.39780000      0.05450000
       5       1       7      9.94088525      9.84590000      0.04250000
       6       1       7      2.72890189      2.58510000      0.02800000
       7       1       7      8.27745331      8.26890000      0.02950000
       8       1       7      1.04385461      1.97430000      0.13690000
       9       1       7      4.51150025      4.54690000      0.02430000
      10       1       7      0.83460166      0.74700000      0.17320000
      11       1       7      1.98096186      2.03810000      0.04670000
      12       1       7      0.47646529      0.56980000      0.31400000
      13       1       7      1.13843204      1.08490000      0.06320000
      14       1       7      0.20251457      0.27500000      0.22010000
       1       3       7     12.62528773     12.73810000      0.03560000
       2       3       7      1.54807062      1.46800000      0.04410000
       3       3       7     14.69982441     14.76360000      0.03970000
       4       3       7      0.90213750      0.94280000      0.09690000
       5       3       7     10.69691368     10.54180000      0.03360000
       6       3       7      1.18977583      1.18210000      0.04830000
       7       3       7      5.63230579      5.63960000      0.02630000
       8       3       7      0.46663901      0.35500000      0.32400000
       9       3       7      3.36770487      3.45870000      0.02970000
      10       3       7      0.07412022      0.49080000      0.33350000
      11       3       7      2.65522116      2.67540000      0.03270000
      12       3       7      0.34972264      0.37620000      0.28890000
      13       3       7      1.15518666      1.08230000      0.06680000
       1       5       7     10.56093870     10.61250000      0.02980000
       2       5       7      4.08171060      4.05500000      0.02160000
       3       5       7     10.35931531     10.21680000      0.03050000
       4       5       7      1.03767025      1.19090000      0.07670000
       5       5       7      7.41235818      7.56240000      0.03370000
       6       5       7      1.99124740      1.97250000      0.03860000
       7       5       7      4.52157009      4.56780000      0.02670000
       8       5       7      1.11973025      1.11280000      0.07530000
       9       5       7      3.21642615      3.12950000      0.03040000
      10       5       7      0.98252684      0.91390000      0.10000000
      11       5       7      1.86550514      1.84690000      0.04330000
      12       5       7      0.41041547      0.40320000      0.34020000
      13       5       7      0.76659761      0.74270000      0.07180000
       1       7       7      8.85105633      8.78130000      0.03290000
       2       7       7      1.25412772      1.70410000      0.10270000
       3       7       7      5.58938256      5.64180000      0.02770000
       4       7       7      0.08743550      0.63960000      0.19640000
       5       7       7      4.44183833      4.43630000      0.02400000
       6       7       7      0.90480708      0.97200000      0.07830000
       7       7       7      4.51009104      4.60370000      0.02980000
       8       7       7      0.67702333      0.55190000      0.26900000
       9       7       7      2.42901588      2.44290000      0.03120000
      10       7       7      0.41163155      0.38770000      0.29800000
      11       7       7      0.95031515      0.97560000      0.07020000
      12       7       7      0.08715562      0.33250000      0.25420000
       1       9       7      4.54825687      4.56040000      0.02420000
       2       9       7      1.18403068      1.24450000      0.06420000
       3       9       7      4.20486739      4.30750000      0.02390000
       4       9       7      0.69203857      0.58220000      0.29420000
       5       9       7      3.55206103      3.49000000      0.02620000
       6       9       7      1.08998773      1.05080000      0.08690000
       7       9       7      2.34261325      2.30520000      0.03800000
       8       9       7      0.41266142      0.67310000      0.23750000
       9       9       7      1.21576817      1.27300000      0.04780000
      10       9       7      0.05179256      0.30360000      0.31980000
       1      11       7      2.23306287      2.26400000      0.04030000
       2      11       7      0.79967486      0.87480000      0.09140000
       3      11       7      2.83305214      2.83590000      0.03090000
       4      11       7      0.35811623      0.57640000      0.29050000
       5      11       7      2.01975765      2.09650000      0.03270000
       6      11       7      0.44432489      0.53030000      0.21540000
       7      11       7      1.00193872      1.02210000      0.08190000
       8      11       7      0.23192165      0.35570000      0.29350000
       1      13       7      1.55936374      1.58180000      0.03850000
       2      13       7      0.33301478      0.57690000      0.25070000
       3      13       7      1.13900951      1.14710000      0.05310000
       4      13       7      0.08489035      0.32420000      0.28420000
       5      13       7      0.85003838      0.77420000      0.04920000
       0       0       8     17.93823014     17.77970000      0.07840000
       2       0       8     11.78116987     11.63280000      0.04420000
       4       0       8      6.67766128      6.56870000      0.03710000
       6       0       8      8.29108894      8.45290000      0.04770000
       8       0       8      6.08868614      6.05570000      0.03330000
      10       0       8      1.99875405      1.92100000      0.06540000
      12       0       8      0.98614547      0.85880000      0.15070000
       0       2       8     11.19356791     11.16250000      0.04160000
       1       2       8      3.10904691      3.08740000      0.02840000
       2       2       8     11.67913057     11.72960000      0.03020000
       3       2       8      1.78194889      1.80470000      0.03160000
       4       2       8     10.47985089     10.50590000      0.04130000
       5       2       8      2.82092439      2.80600000      0.03120000
       6       2       8      6.68737334      6.61290000      0.04030000
       7       2       8      0.79499456      0.61680000      0.24070000
       8       2       8      3.83726743      3.86550000      0.02170000
       9       2       8      1.12665112      1.21150000      0.07850000
      10       2       8      2.57484283      2.61500000      0.03640000
      11       2       8      0.24195193      0.41240000      0.36680000
      12       2       8      1.47158850      1.44330000      0.05010000
      13       2       8      0.41816096      0.36690000      0.24900000
       0       4       8      7.32841644      7.39910000      0.03960000
       1       4       8      1.73645786      1.84670000      0.03920000
       2       4       8     10.08829784     10.12250000      0.03230000
       3       4       8      1.41285374      1.52270000      0.04750000
       4       4       8     10.05839270      9.96300000      0.03250000
       5       4       8      1.11208613      1.24710000      0.05800000
       6       4       8      4.83113729      4.80850000      0.02300000
       7       4       8      0.23585673      0.52650000      0.20960000
       8       4       8      2.72197085      2.78880000      0.03000000
       9       4       8      0.89216614      0.96520000      0.11830000
      10       4       8      2.66083452      2.64800000      0.03450000
      11       4       8      0.33612221      0.35700000      0.35570000
      12       4       8      1.34719634      1.29030000      0.05010000
      13       4       8      0.14092382      0.34670000      0.24880000
       0       6       8      9.55677436      9.62640000      0.04740000
       1       6       8      1.38810900      1.34040000      0.06530000
       2       6       8      6.90074952      6.96070000      0.03390000
       3       6       8      0.96239057      1.03250000      0.07370000
       4       6       8      4.25233156      4.25700000      0.02410000
       5       6       8      0.81364501      0.47080000      0.34020000
       6       6       8      4.52736201      4.60220000      0.02400000
       7       6       8      0.45522797      0.51580000      0.19920000
       8       6       8      3.57274947      3.64560000      0.02820000
       9       6       8      0.85222357      0.65490000      0.18600000
      10       6       8      1.44451568      1.43030000      0.05320000
      11       6       8      0.14588477      0.43430000      0.33220000
      12       6       8      0.61688537      0.55740000      0.09560000
       0       8       8      5.56710255      5.45710000      0.03630000
       1       8       8      1.12269949      1.29710000      0.07040000
       2       8       8      4.39100763      4.40160000      0.02420000
       3       8       8      0.58515293      0.71420000      0.21850000
       4       8       8      3.46150601      3.54910000      0.02790000
       5       8       8      1.35738262      1.32740000      0.06600000
       6       8       8      3.25791790      3.27280000      0.02560000
       7       8       8      0.68310482      0.52700000      0.24560000
       8       8       8      2.00100889      1.97110000      0.04440000
       9       8       8      0.33442502      0.56180000      0.26420000
      10       8       8      0.88767829      0.80930000      0.09410000
      11       8       8      0.17537206      0.26280000      0.29350000
       0      10       8      1.95250104      1.92970000      0.06110000
       1      10       8      0.35863278      0.55640000      0.28050000
       2      10       8      2.88729720      2.85510000      0.03070000
       3      10       8      0.38780273      0.58360000      0.33260000
       4      10       8      3.09550291      3.08850000      0.03080000
       5      10       8      0.50830021      0.48710000      0.34380000
       6      10       8      1.51244892      1.48650000      0.04350000
       7      10       8      0.11965074      0.36470000      0.33620000
       8      10       8      0.81138258      0.55430000      0.26090000
       9      10       8      0.25242328      0.40560000      0.15020000
       0      12       8      1.77036593      1.76270000      0.05610000
       1      12       8      0.41883340      0.33620000      0.34020000
       2      12       8      1.57400773      1.59870000      0.04290000
       3      12       8      0.35762730      0.63350000      0.16220000
       4      12       8      1.18446771      1.08800000      0.05600000
       5      12       8      0.17469107      0.47920000      0.18270000
       6      12       8      0.91536050      0.86620000      0.04830000
       1       1       9     10.87933609     10.94020000      0.03480000
       2       1       9      2.42752808      2.45690000      0.03560000
       3       1       9      7.45511902      7.39980000      0.03290000
       4       1       9      0.71311001      0.90740000      0.10910000
       5       1       9      6.35167669      6.41990000      0.03080000
       6       1       9      1.49495400      1.55020000      0.04420000
       7       1       9      5.29155148      5.31510000      0.03370000
       8       1       9      0.52782935      0.74840000      0.12710000
       9       1       9      2.67135582      2.62980000      0.02750000
      10       1       9      0.46484308      0.51470000      0.37050000
      11       1       9      1.26304466      1.22040000      0.05930000
      12       1       9      0.29753608      0.31960000      0.32810000
      13       1       9      0.85502036      0.85610000      0.05340000
       1       3       9      7.22819181      7.20110000      0.03170000
       2       3       9      0.89371070      0.93870000      0.12160000
       3       3       9      9.52287271      9.39150000      0.03730000
       4       3       9      0.54869365      0.56170000      0.28460000
       5       3       9      6.48407999      6.40700000      0.03030000
       6       3       9      0.62451473      0.85630000      0.19110000
       7       3       9      2.85200201      2.87320000      0.03310000
       8       3       9      0.23418885      0.54300000      0.26640000
       9       3       9      2.46255449      2.55890000      0.03270000
      10       3       9      0.23380325      0.41380000      0.34800000
      11       3       9      1.82841861      1.76830000      0.04310000
      12       3       9      0.22053948      0.44270000      0.22360000
       1       5       9      7.10460448      7.25450000      0.03520000
       2       5       9      2.24547108      2.27630000      0.03850000
       3       5       9      5.80851325      5.79390000      0.02890000
       4       5       9      0.32633878      0.54480000      0.18860000
       5       5       9      4.31350910      4.24590000      0.02510000
       6       5       9      1.03479978      1.20650000      0.06310000
       7       5       9      3.34611140      3.33060000      0.02630000
       8       5       9      0.81742960      0.95020000      0.07610000
       9       5       9      2.18317970      2.20160000      0.03460000
      10       5       9      0.58933600      0.59210000      0.26360000
      11       5       9      1.04333425      0.92100000      0.07850000
      12       5       9      0.14367781      0.40470000      0.12230000
       1       7       9      5.47995184      5.48390000      0.02570000
       2       7       9      0.60140106      0.82200000      0.11580000
       3       7       9      3.32975949      3.32420000      0.02980000
       4       7       9      0.37632950      0.49210000      0.24750000
       5       7       9      3.16074711      3.25000000      0.03050000
       6       7       9      0.79985646      0.75980000      0.18040000
       7       7       9      2.95577483      3.02070000      0.02900000
       8       7       9      0.30345582      0.45860000      0.33620000
       9       7       9      1.34720348      1.31930000      0.05480000
      10       7       9      0.05311012      0.37130000      0.30250000
       1       9       9      2.52693729      2.48400000      0.03680000
       2       9       9      0.72550982      0.96590000      0.08670000
       3       9       9      3.17284847      3.28930000      0.03010000
       4       9       9      0.50917438      0.53250000      0.24300000
       5       9       9      2.40018914      2.42800000      0.03450000
       6       9       9      0.61942781      0.70490000      0.17820000
       7       9       9      1.14864025      1.13690000      0.06030000
       8       9       9      0.14202997      0.43590000      0.22700000
       9       9       9      0.89774629      1.37680000      0.04700000
       1      11       9      1.73295374      1.78560000      0.04050000
       2      11       9      0.55093367      0.33600000      0.34410000
       3      11       9      1.70561569      1.68900000      0.04060000
       4      11       9      0.10218166      0.49460000      0.30780000
       5      11       9      1.16781399      1.14340000      0.05330000
       6      11       9      0.15478170      0.37990000      0.21040000
       0       0      10      8.59467326      8.68250000      0.07980000
       2       0      10      6.94141909      6.88110000      0.04590000
       4       0      10      5.72072209      5.65370000      0.03770000
       6       0      10      4.70603363      4.73130000      0.04340000
       8       0      10      2.95013144      2.93180000      0.04540000
      10       0      10      1.43524880      1.46370000      0.06500000
      12       0      10      0.93442278      0.84960000      0.07620000
       0       2      10      6.77015631      6.80150000      0.04420000
       1       2      10      1.51571495      1.59460000      0.05010000
       2       2      10      6.84008731      6.84500000      0.03170000
       3       2      10      0.95818292      0.83810000      0.10900000
       4       2      10      5.90782272      5.91270000      0.03410000
       5       2      10      1.36661885      1.34850000      0.05930000
       6       2      10      3.86169290      3.88880000      0.03330000
       7       2      10      0.31353957      0.48850000      0.33500000
       8       2      10      2.49406813      2.45540000      0.03880000
       9       2      10      0.64079440      0.53110000      0.22220000
      10       2      10      1.65255674      1.64150000      0.03710000
      11       2      10      0.20833036      0.38130000      0.31130000
      12       2      10      0.87124393      0.76170000      0.06500000
       0       4      10      6.07555768      6.11640000      0.03980000
       1       4      10      0.87176217      0.80290000      0.15640000
       2       4      10      5.76898700      5.85050000      0.02800000
       3       4      10      0.68701476      0.83320000      0.10510000
       4       4      10      4.79552369      4.84270000      0.02280000
       5       4      10      0.58603851      0.53730000      0.31170000
       6       4      10      3.19715613      3.15270000      0.03020000
       7       4      10      0.36106639      0.58450000      0.21490000
       8       4      10      2.37543474      2.37860000      0.03840000
       9       4      10      0.49640268      0.59710000      0.18490000
      10       4      10      1.47236514      1.45250000      0.04450000
      11       4      10      0.11271851      0.41290000      0.29800000
       0       6      10      5.12388131      5.17700000      0.03460000
       1       6      10      0.68031226      0.61690000      0.17270000
       2       6      10      4.03390298      4.05530000      0.02720000
       3       6      10      0.34037326      0.66530000      0.24600000
       4       6      10      3.17885239      3.13960000      0.03030000
       5       6      10      0.70906567      0.72400000      0.16820000
       6       6      10      2.86889410      2.86490000      0.03060000
       7       6      10      0.42877825      0.45220000      0.36680000
       8       6      10      1.90140093      1.91530000      0.03580000
       9       6      10      0.33759573      0.50490000      0.21110000
      10       6      10      0.85879915      0.85010000      0.06720000
       0       8      10      2.64818629      2.64250000      0.04900000
       1       8      10      0.62522949      0.48770000      0.21070000
       2       8      10      2.82739982      2.80590000      0.03120000
       3       8      10      0.45605072      0.57340000      0.27220000
       4       8      10      2.69378483      2.67760000      0.03410000
       5       8      10      0.71213379      0.76830000      0.15850000
       6       8      10      1.76381509      1.79780000      0.04230000
       7       8      10      0.24119025      0.34950000      0.24880000
       8       8      10      1.00289693      0.89120000      0.06830000
       9       8      10      0.28427983      0.45530000      0.15050000
       0      10      10      1.83786878      1.82010000      0.06270000
       1      10      10      0.29005246      0.58300000      0.29380000
       2      10      10      1.81004473      1.79040000      0.04040000
       3      10      10      0.30571884      0.49110000      0.33330000
       4      10      10      1.56369645      1.54960000      0.04420000
       5      10      10      0.10529426      0.54650000      0.27170000
       6      10      10      0.99609626      1.01400000      0.06380000
       0      12      10      1.23385932      1.12930000      0.04720000
       1      12      10      0.21584139      0.40660000      0.18720000
       1       1      11      5.14700900      5.20260000      0.02490000
       2       1      11      1.14746441      1.21940000      0.06870000
       3       1      11      5.14710701      5.15650000      0.02440000
       4       1      11      0.31267384      0.50690000      0.33040000
       5       1      11      3.94894800      3.93840000      0.02900000
       6       1      11      0.65636732      0.58150000      0.22260000
       7       1      11      2.39075257      2.37420000      0.03690000
       8       1      11      0.29703658      0.62050000      0.31290000
       9       1      11      1.51475803      1.45510000      0.05230000
      10       1      11      0.27269395      0.55520000      0.17830000
      11       1      11      1.02396915      0.94330000      0.05650000
       1       3      11      5.25705620      5.31450000      0.02580000
       2       3      11      0.53561947      0.49260000      0.34000000
       3       3      11      4.06514501      4.08210000      0.02610000
       4       3      11      0.16096825      0.36780000      0.34020000
       5       3      11      3.02679625      3.06550000      0.03100000
       6       3      11      0.14521760      0.49000000      0.32620000
       7       3      11      2.58696533      2.58610000      0.03830000
       8       3      11      0.27065301      0.50650000      0.36680000
       9       3      11      1.61829301      1.51440000      0.04780000
      10       3      11      0.18869568      0.32720000      0.30690000
      11       3      11      0.76913132      0.54520000      0.09080000
       1       5      11      4.04578732      4.10920000      0.02590000
       2       5      11      0.96937154      0.87560000      0.10870000
       3       5      11      3.10381880      3.13790000      0.03030000
       4       5      11      0.32995187      0.50310000      0.31770000
       5       5      11      2.62959831      2.63120000      0.03330000
       6       5      11      0.73691161      0.73320000      0.14020000
       7       5      11      2.07754244      1.99980000      0.04190000
       8       5      11      0.33422647      0.57040000      0.30030000
       9       5      11      1.15463405      1.16990000      0.04880000
      10       5      11      0.15834739      0.47260000      0.16910000
       1       7      11      2.43540448      2.41100000      0.03630000
       2       7      11      0.37859952      0.56180000      0.27780000
       3       7      11      2.79490317      2.74970000      0.03180000
       4       7      11      0.30875175      0.51810000      0.36680000
       5       7      11      2.16290387      2.06650000      0.03680000
       6       7      11      0.37989498      0.45880000      0.24890000
       7       7      11      1.19273994      1.22550000      0.05590000
       8       7      11      0.03894906      0.38040000      0.24010000
       9       7      11      0.78715955      0.78620000      0.05810000
       1       9      11      1.79564880      1.78930000      0.04250000
       2       9      11      0.48440034      0.34490000      0.28420000
       3       9      11      1.68820890      1.62450000      0.04220000
       4       9      11      0.18045163      0.37270000      0.33220000
       5       9      11      1.20404861      1.21460000      0.05010000
       6       9      11      0.12286464      0.30600000      0.30690000
       1      11      11      1.21424605      1.14100000      0.04000000
       2      11      11      0.24423294      0.45490000      0.22590000
       0       0      12      3.14553133      3.25050000      0.07960000
       2       0      12      3.90619494      3.97690000      0.03830000
       4       0      12      3.89105354      3.88200000      0.03920000
       6       0      12      2.14658119      2.14320000      0.06220000
       8       0      12      1.19678360      1.26830000      0.08100000
      10       0      12      1.07517385      1.07210000      0.07810000
       0       2      12      4.05235276      4.16640000      0.03650000
       1       2      12      0.68756414      0.68440000      0.18910000
       2       2      12      3.59575644      3.60060000      0.02750000
       3       2      12      0.48267606      0.54900000      0.30510000
       4       2      12      2.80457871      2.75430000      0.03320000
       5       2      12      0.52103477      0.60870000      0.26260000
       6       2      12      2.21057631      2.16440000      0.04040000
       7       2      12      0.11848725      0.42560000      0.35570000
       8       2      12      1.58204373      1.47040000      0.05180000
       9       2      12      0.35578937      0.65700000      0.12170000
      10       2      12      0.88963609      0.74850000      0.09660000
       0       4      12      3.88594400      3.92320000      0.03880000
       1       4      12      0.35428464      0.42080000      0.34410000
       2       4      12      2.93467779      2.94050000      0.03110000
       3       4      12      0.19911888      0.37200000      0.33620000
       4       4      12      2.02128218      2.01890000      0.04710000
       5       4      12      0.42073568      0.63430000      0.19200000
       6       4      12      2.07935591      2.05570000      0.04070000
       7       4      12      0.27124661      0.42110000      0.27120000
       8       4      12      1.50208001      1.46760000      0.04670000
       9       4      12      0.13496484      0.48830000      0.28840000
       0       6      12      2.03972515      2.05260000      0.06120000
       1       6      12      0.28586733      0.49260000      0.37050000
       2       6      12      2.32032452      2.31570000      0.03780000
       3       6      12      0.12202071      0.53180000      0.37770000
       4       6      12      2.30302527      2.28460000      0.03500000
       5       6      12      0.45229628      0.51800000      0.33070000
       6       6      12      1.43553309      1.40510000      0.05150000
       7       6      12      0.18484233      0.28750000      0.26960000
       8       6      12      0.78718380      0.82410000      0.08310000
       0       8      12      1.51186703      1.54860000      0.06640000
       1       8      12      0.33876826      0.48740000      0.22650000
       2       8      12      1.66162849      1.63580000      0.04190000
       3       8      12      0.31849029      0.38170000      0.34020000
       4       8      12      1.48958749      1.42050000      0.04560000
       5       8      12      0.18361002      0.33950000      0.31560000
       6       8      12      0.89877230      0.87050000      0.07000000
       0      10      12      1.32547186      1.24000000      0.06450000
       1      10      12      0.14739738      0.61080000      0.13710000
       2      10      12      0.98754842      0.92180000      0.06190000
       1       1      13      2.59571988      2.59980000      0.03370000
       2       1      13      0.48134316      0.43390000      0.28950000
       3       1      13      2.72253282      2.73270000      0.03340000
       4       1      13      0.10444924      0.54830000      0.36100000
       5       1      13      2.00810107      1.91390000      0.04380000
       6       1      13      0.25691613      0.35240000      0.35190000
       7       1      13      1.21651524      1.16010000      0.05910000
       8       1      13      0.15367807      0.42170000      0.31980000
       9       1      13      0.90468385      0.87840000      0.08230000
       1       3      13      2.81913936      2.79850000      0.03400000
       2       3      13      0.22812237      0.55650000      0.35570000
       3       3      13      1.83429724      1.83070000      0.04570000
       4       3      13      0.04017381      0.54580000      0.34870000
       5       3      13      1.63317553      1.60470000      0.04740000
       6       3      13      0.12950357      0.37980000      0.34800000
       7       3      13      1.51138468      1.49120000      0.04590000
       8       3      13      0.14732692      0.46650000      0.30190000
       1       5      13      1.95018133      1.86930000      0.04480000
       2       5      13      0.37618491      0.40260000      0.35570000
       3       5      13      1.83737441      1.84700000      0.04120000
       4       5      13      0.22885411      0.38180000      0.34800000
       5       5      13      1.51548833      1.41090000      0.04860000
       6       5      13      0.36218445      0.43820000      0.22580000
       7       5      13      0.99471971      0.93090000      0.06540000
       1       7      13      1.32758706      1.25400000      0.05460000
       2       7      13      0.24892469      0.33720000      0.33620000
       3       7      13      1.54144422      1.50860000      0.04290000
       4       7      13      0.12580811      0.34450000      0.31980000
       5       7      13      1.08845771      1.01620000      0.05240000
       1       9      13      1.10939556      1.02440000      0.05200000
       0       0      14      1.88444952      2.04740000      0.09480000
       2       0      14      1.94453321      1.92170000      0.05940000
       4       0      14      1.71474579      1.71270000      0.06000000
       6       0      14      1.10502598      1.08250000      0.08090000
       0       2      14      2.00812139      1.98220000      0.05570000
       1       2      14      0.26166205      0.42740000      0.29390000
       2       2      14      1.77619046      1.73920000      0.04600000
       3       2      14      0.17242533      0.45020000      0.35570000
       4       2      14      1.43220569      1.39530000      0.05180000
       5       2      14      0.21359135      0.41050000      0.33620000
       6       2      14      1.17511330      1.19570000      0.05730000
       7       2      14      0.10362101      0.30460000      0.30690000
       0       4      14      1.68087795      1.64610000      0.06470000
       1       4      14      0.13560811      0.61080000      0.18690000
       2       4      14      1.50359132      1.46190000      0.04950000
       3       4      14      0.09200341      0.39360000      0.27940000
       4       4      14      1.30265255      1.23380000      0.05240000
       5       4      14      0.20012826      0.32670000      0.31980000
       6       4      14      1.04241152      0.91270000      0.07090000
       0       6      14      1.13387328      1.15920000      0.07550000
       1       6      14      0.14111291      0.42950000      0.23040000
       2       6      14      1.22856240      1.21540000      0.05010000
       3       6      14      0.13198863      0.41160000      0.22190000
       4       6      14      1.12096503      1.04700000      0.05090000
       1       1      15      1.39459372      1.33990000      0.05110000
       2       1      15      0.16456259      0.44570000      0.24770000
       3       1      15      1.17295914      1.13660000      0.06360000
       4       1      15      0.04561246      0.32230000      0.31980000
       5       1      15      0.93036193      0.83170000      0.07320000
       1       3      15      1.18756256      1.12380000      0.05420000
       2       3      15      0.05842517      0.40060000      0.31560000
       3       3      15      1.12325701      1.16460000      0.05560000
       4       3      15      0.06129317      0.35600000      0.20310000
       1       5      15      0.95735963      0.93970000      0.05670000
       2       5      15      0.17222100      0.25530000      0.24330000
       0       0      16      1.06177250      0.96840000      0.11790000
